# ORCA input file
# BCDT-4F.out: Geometry 166
! B3LYP def2-TZVP def2/J RIJCOSX Grid4 TightSCF

%maxcore 6000
%tddft
  maxdim 5
  nroots 50
  end
%pal
  nprocs 6
  end


* xyz 0 1
   C        2.33218        -1.21393        -3.61652
   O        1.55547        -1.99376        -3.10448
   C        2.52990        -0.98580        -5.07127
   C        1.89208        -1.62675        -6.12760
   C        2.25614        -1.25652        -7.41778
   C        3.23565        -0.26647        -7.62464
   C        3.86285         0.38448        -6.56385
   C        3.50203         0.01645        -5.26169
   C        3.91671         0.53963        -3.93161
   C        4.56136         1.75472        -3.74132
   C        4.63272         2.41648        -2.47976
   N        4.69689         2.99631        -1.47422
   C        5.12931         2.50496        -4.81711
   N        5.62184         3.11807        -5.67345
   C        3.32285        -0.32555        -2.92446
   F        3.56482         0.05241        -8.87397
   C        3.52612        -0.52822        -1.57259
   F        1.68675        -1.83292        -8.47403
   C       13.79329         5.08857        18.79255
   O       13.07972         6.05439        18.97068
   C       14.96814         4.67910        19.61030
   C       15.52718         5.33676        20.70093
   C       16.63528         4.75426        21.31029
   C       17.14558         3.53101        20.83856
   C       16.58100         2.87290        19.74685
   C       15.47800         3.46206        19.11600
   C       14.62306         3.00994        17.98280
   C       14.60105         1.71289        17.48590
   C       13.53725         1.21824        16.67660
   N       12.66382         0.78843        16.04119
   C       15.56643         0.72729        17.85680
   N       16.35412        -0.07958        18.13978
   C       13.69397         4.08202        17.68503
   F       18.19349         2.99314        21.46073
   C       12.83475         4.38097        16.64169
   F       17.22972         5.34411        22.34626
   C       12.74578         3.92735        15.30729
   S       11.29656         4.36188        14.37686
   C       11.93061         3.60453        12.97855
   C       13.22110         3.06722        13.18372
   C       13.66280         3.22784        14.49451
   C       11.51049         3.32608        11.64070
   C       12.53843         2.64121        10.98795
   C       13.73110         2.40588        11.90306
   S       10.10854         3.51968        10.65192
   C       10.92849         2.71319         9.30352
   C       12.21720         2.30608         9.66815
   C       10.28167         2.51880         8.01839
   C       10.98966         2.24821         6.84193
   C       10.34816         1.94618         5.58905
   C        8.96303         1.92807         5.41675
   C        8.20380         2.25639         6.59553
   C        8.84877         2.55418         7.86570
   N        6.87642         2.32552         6.65619
   S        6.46960         2.75212         8.18925
   N        7.97933         2.85542         8.82777
   C        8.32693         1.59362         4.15437
   S        6.66020         1.00081         4.08838
   C        6.77713         0.81284         2.37811
   C        8.01188         1.23536         1.86936
   C        8.89166         1.65817         2.87529
   C        5.95563         0.37663         1.29012
   C        6.67618         0.52273         0.08874
   C        8.05851         1.11602         0.35085
   S        4.35023        -0.17597         1.03431
   C        4.59621        -0.15903        -0.72411
   C        5.91150         0.23005        -1.03631
   O       12.34577         2.18567         6.85492
   O       11.17527         1.65840         4.54570
   C       13.08797         3.18099         6.12149
   C       13.69003         4.20130         7.06801
   C       11.67059         0.30763         4.48806
   C       12.30832         0.10055         3.13036
   C        9.21701         0.20413        -0.11913
   C        9.18454        -1.21807         0.43439
   C        8.11217         2.51345        -0.33400
   C        9.40216         3.30714        -0.13984
   C       13.98492         0.88975        12.09516
   C       12.75957         0.08842        12.52791
   C       14.96811         3.13255        11.30802
   C       16.27864         2.97459        12.07183
   H        1.13186        -2.39042        -5.95485
   H        4.60640         1.14501        -6.79552
   H        2.73386        -1.13897        -1.11870
   H       15.11289         6.27407        21.07521
   H       17.02456         1.93114        19.43134
   H       12.14796         5.19661        16.90618
   H       14.62208         2.88072        14.87404
   H       12.86516         1.77173         8.98091
   H        9.90216         2.01921         2.71561
   H        6.27057         0.27722        -2.06343
   H       12.43215         3.65903         5.37965
   H       13.87045         2.63727         5.57060
   H       12.90707         4.75432         7.60824
   H       14.29801         4.92433         6.49992
   H       14.33610         3.71375         7.81347
   H       10.82721        -0.38753         4.64449
   H       12.39572         0.15528         5.30535
   H       11.55818         0.17983         2.32940
   H       12.77264        -0.89605         3.07476
   H       13.08943         0.85457         2.95025
   H       10.16455         0.68742         0.16892
   H        9.20873         0.18058        -1.22221
   H        9.25822        -1.22389         1.53362
   H       10.02337        -1.80994         0.03721
   H        8.25285        -1.73710         0.15975
   H        7.25051         3.09811         0.02348
   H        7.93539         2.36062        -1.41189
   H        9.61210         3.50257         0.92252
   H        9.31918         4.28245        -0.64217
   H       10.27411         2.79310        -0.57127
   H       14.78673         0.75775        12.83930
   H       14.38041         0.49601        11.14267
   H       12.39160         0.41837        13.51110
   H       13.01671        -0.97859        12.61349
   H       11.93741         0.18017        11.80181
   H       14.71443         4.20148        11.21608
   H       15.10274         2.75796        10.27876
   H       16.19302         3.33118        13.10992
   H       17.07150         3.56717        11.59091
   H       16.61835         1.92854        12.09589
*
