# ORCA input file
# BTA3.out: Geometry 50
! B3LYP def2-TZVP def2/J RIJCOSX Grid4 TightSCF

%maxcore 6000
%tddft
  maxdim 5
  nroots 50
  end
%pal
  nprocs 6
  end


* xyz 0 1
   C        2.24380        -2.93091        -0.05528
   C        2.25283        -2.34293         1.24141
   C        1.20969        -1.50703         1.67235
   C        0.13454        -1.31730         0.81503
   C        0.07731        -1.99997        -0.43183
   C        1.14360        -2.79228        -0.88631
   C        3.55067        -3.69967        -0.31967
   C        4.16368        -3.68380         1.07870
   C        3.42754        -2.85694         1.91647
   C        5.22078        -4.34154         1.73469
   C        5.27679        -4.03416         3.09460
   S        4.02485        -2.86184         3.53379
   C       -1.14827        -0.48971         1.04951
   C       -1.94227        -0.84603        -0.20461
   C       -1.21666        -1.71077        -1.00890
   C       -3.20291        -0.51215        -0.73810
   C       -3.46213        -1.18946        -1.92707
   S       -2.08938        -2.18796        -2.41651
   C        6.12971        -4.62238         4.10205
   C       -4.70911        -1.23588        -2.66051
   C       -1.81581        -0.97070         2.34556
   C       -0.92492         1.02924         1.02386
   C        3.29671        -5.10656        -0.87420
   C        4.48098        -2.91854        -1.27529
   C        6.06059        -4.29242         5.46484
   C        6.84792        -4.90623         6.46035
   C        7.79664        -5.89798         6.17673
   C        7.89133        -6.24840         4.79338
   C        7.08736        -5.64100         3.78438
   C       -5.10929        -2.34875        -3.40935
   C       -6.39574        -2.47776        -3.96841
   C       -7.38965        -1.49855        -3.84179
   C       -6.95675        -0.29437        -3.20098
   C       -5.66158        -0.17101        -2.61264
   N        8.66950        -7.17685         4.20714
   N        8.32957        -7.10390         2.93182
   N        7.40223        -6.22148         2.60614
   N       -7.61696         0.86129        -2.99991
   N       -6.74278         1.60393        -2.33765
   N       -5.56926         1.06015        -2.06979
   C        8.66010        -6.57012         7.11297
   C        8.61061        -6.64725         8.46847
   C       -8.77753        -1.65771        -4.19323
   C       -9.45837        -2.80539        -4.45630
   C       -7.02632         2.98718        -2.00127
   C        8.96090        -7.94256         1.93114
   C      -10.92907        -2.81449        -4.60346
   N      -11.39718        -4.15351        -4.67736
   C      -10.43928        -5.12201        -4.66127
   S       -8.81904        -4.44580        -4.50952
   C        9.61006        -7.43802         9.21532
   N        9.26467        -7.48380        10.59018
   C        8.14204        -6.79783        10.94471
   S        7.39522        -5.99357         9.56141
   C       10.10440        -8.25997        11.49943
   O       10.58365        -7.99437         8.76172
   C        7.56517        -6.67772        12.20130
   C        6.36313        -5.91475        12.32337
   C        8.08263        -7.27039        13.39084
   C        3.20915        -6.22763        -0.04245
   C        3.03329        -7.50675        -0.57951
   C        2.92426        -7.70910        -1.96067
   C        2.96485        -6.57529        -2.78740
   C        3.14883        -5.30033        -2.25692
   C        4.12725        -1.70487        -1.87223
   C        4.99622        -1.06152        -2.76031
   C        6.24636        -1.60332        -3.07847
   C        6.60006        -2.81953        -2.47024
   C        5.73809        -3.46176        -1.58540
   C       -2.76083        -2.00190         2.34578
   C       -3.29473        -2.48756         3.54318
   C       -2.90096        -1.96410         4.78108
   C       -1.95021        -0.92923         4.77532
   C       -1.41939        -0.43981         3.58313
   C        0.22135         1.61090         0.47257
   C        0.31741         2.99902         0.32391
   C       -0.72473         3.84801         0.71624
   C       -1.86256         3.25924         1.29333
   C       -1.96328         1.87876         1.44101
   O      -11.66645        -1.85615        -4.62507
   C      -12.83345        -4.40498        -4.72838
   C      -10.59138        -6.49874        -4.74640
   C       -9.41175        -7.30512        -4.69982
   C      -11.83458        -7.18417        -4.88199
   N        5.38322        -5.29321        12.39254
   N        8.48453        -7.74411        14.37328
   N      -12.82501        -7.78324        -4.99004
   N       -8.43360        -7.93197        -4.66048
   C       -3.47176        -2.48907         6.07492
   C       -0.65586         5.33865         0.50460
   C        7.19133        -0.89707        -4.01667
   C        2.77740        -9.08821        -2.55085
   H        1.23409        -1.04025         2.65836
   H        1.09947        -3.29473        -1.85363
   H        5.89931        -5.06226         1.28554
   H       -3.92547         0.16219        -0.28252
   H        5.35472        -3.52210         5.78341
   H        6.71694        -4.55389         7.48504
   H       -4.42229        -3.19149        -3.51048
   H       -6.60641        -3.39987        -4.50915
   H        9.47907        -7.14670         6.67079
   H       -9.40013        -0.75883        -4.14773
   H       -8.10034         3.15236        -2.13957
   H       -6.45727         3.65518        -2.66331
   H       -6.72823         3.17510        -0.96161
   H        9.60068        -8.65904         2.45748
   H        9.56374        -7.32216         1.25194
   H        8.18821        -8.46652         1.35263
   H       10.89292        -8.70629        10.88262
   H        9.51960        -9.04901        11.98894
   H       10.55045        -7.61346        12.26629
   H        3.30350        -6.10923         1.03830
   H        2.99466        -8.36765         0.09341
   H        2.87045        -6.69663        -3.87054
   H        3.21884        -4.44523        -2.93136
   H        3.15886        -1.25243        -1.66028
   H        4.68378        -0.12152        -3.22340
   H        7.56504        -3.27631        -2.70687
   H        6.03512        -4.41513        -1.14450
   H       -3.08712        -2.43821         1.40055
   H       -4.03408        -3.29244         3.51219
   H       -1.61997        -0.49301         5.72272
   H       -0.69546         0.37781         3.61078
   H        1.04662         0.97773         0.14290
   H        1.22112         3.42937        -0.11697
   H       -2.68763         3.89515         1.62673
   H       -2.86230         1.44876         1.88742
   H      -13.32374        -3.42788        -4.64935
   H      -13.14147        -5.04780        -3.89347
   H      -13.11545        -4.88733        -5.67382
   H       -4.23733        -3.25751         5.89557
   H       -3.93461        -1.68206         6.66705
   H       -2.68495        -2.93944         6.70374
   H        0.35272         5.66308         0.20847
   H       -0.94405         5.89136         1.41336
   H       -1.35164         5.65387        -0.29126
   H        6.64890        -0.24778        -4.72073
   H        7.79306        -1.61011        -4.60205
   H        7.89785        -0.25805        -3.45757
   H        2.91456        -9.86925        -1.78866
   H        3.51701        -9.26171        -3.34880
   H        1.78150        -9.22814        -3.00471
*
