# ORCA input file
# BTN-4F.out: Geometry 122
! B3LYP def2-TZVP def2/J RIJCOSX Grid4 TightSCF

%maxcore 6000
%tddft
  maxdim 5
  nroots 50
  end
%pal
  nprocs 6
  end


* xyz 0 1
   C        0.55913        -0.81636        -0.86291
   C        1.34847         0.37790        -0.93436
   C        2.77700         0.27895        -0.86442
   C        3.37875        -0.96512        -0.49773
   C        2.59603        -2.15634        -0.36821
   C        1.16697        -2.09040        -0.61794
   N        3.03634        -3.37758        -0.09525
   S        1.72489        -4.38470        -0.14977
   N        0.56266        -3.26780        -0.52941
   N        3.79533         1.20753        -1.09403
   C        5.00485         0.58748        -0.82713
   C        4.76846        -0.74377        -0.44106
   C       -0.78906        -0.39020        -0.89436
   C       -0.80463         1.02153        -0.97731
   N        0.50193         1.48989        -0.99487
   N       -2.06279        -0.85255        -0.80981
   C       -2.91484         0.26299        -0.80240
   C       -2.13239         1.44648        -0.95688
   C        6.38693         0.88624        -0.90898
   C        7.16693        -0.22385        -0.52646
   S        6.21897        -1.64753        -0.10869
   S        7.39683         2.21524        -1.37790
   C        8.86038         1.27670        -1.03095
   C        8.56091        -0.02190        -0.57975
   C        0.82097         2.88044        -0.73077
   C       -4.31801         0.26233        -0.61264
   C       -5.09947        -0.63903         0.09352
   C       10.13798         1.82142        -1.35361
   C       11.35302         1.53072        -0.77930
   C       -4.57585        -1.52767         1.17291
   C       -5.75854        -2.21795         1.74489
   C       -6.92818        -1.78011         1.09657
   C       -6.55540        -0.75614         0.08549
   C       12.61057         1.66274        -1.59377
   C       13.63881         0.88093        -0.85096
   C       13.10867         0.45359         0.38351
   C       11.72456         0.96881         0.51267
   C       -5.76495        -3.17871         2.74788
   C       -6.98959        -3.73758         3.09333
   C       -8.16701        -3.32838         2.44186
   C       -8.15916        -2.34523         1.45508
   C       14.91684         0.53220        -1.27263
   C       15.67142        -0.28502        -0.43615
   C       15.15786        -0.71226         0.80255
   C       13.88594        -0.34361         1.23308
   O       -3.43297        -1.63891         1.57531
   C       -7.45359        -0.08736        -0.73016
   C       -7.05420         0.87465        -1.70919
   C       -8.86444        -0.30415        -0.66179
   F       -7.06372        -4.67577         4.03369
   F       -9.31383        -3.91042         2.78218
   O       12.74376         2.22144        -2.66115
   C       11.01030         1.05523         1.69294
   C        9.76039         1.73912         1.79112
   C       11.52089         0.54200         2.92517
   F       15.91425        -1.49552         1.56795
   F       16.88431        -0.69107        -0.79724
   N      -10.01337        -0.47452        -0.61112
   N       -6.74580         1.66127        -2.50786
   N       11.94616         0.10855         3.91586
   N        8.75293         2.30806         1.89503
   C        9.54015        -1.11858        -0.31029
   C        3.71944         2.47233        -1.80479
   C       -2.43722        -2.24947        -0.99084
   H       -2.54283         2.45305        -0.97854
   H       -0.02462         3.33660        -0.19686
   H        0.99530         3.45821        -1.65152
   H        1.70382         2.95368        -0.08413
   H       -4.80923         1.12846        -1.05909
   H       10.19884         2.46821        -2.23906
   H       -4.84564        -3.49727         3.24161
   H       -9.10867        -2.06999         1.00179
   H       15.31347         0.87342        -2.22998
   H       13.54413        -0.70699         2.19946
   H       10.46860        -0.98123        -0.87885
   H        9.09962        -2.08913        -0.58418
   H        9.81362        -1.16515         0.75662
   H        4.62197         2.58474        -2.42205
   H        3.65698         3.33277        -1.12209
   H        2.85243         2.47573        -2.47620
   H       -1.81010        -2.68934        -1.77560
   H       -3.49010        -2.30209        -1.29171
   H       -2.29296        -2.81368        -0.06389
*
