# ORCA input file
# F-H.out: Geometry 28
! B3LYP def2-TZVP def2/J RIJCOSX Grid4 TightSCF

%maxcore 6000
%tddft
  maxdim 5
  nroots 50
  end
%pal
  nprocs 6
  end


* xyz 0 1
   C       -6.01883         0.63269        -1.11843
   O       -7.14191         0.32733        -1.46460
   C       -5.39558         1.98002        -1.16321
   C       -5.94160         3.16119        -1.64970
   C       -5.15686         4.31778        -1.60775
   C       -3.85716         4.26701        -1.08488
   C       -3.31161         3.07770        -0.58478
   C       -4.09261         1.91618        -0.62285
   C       -3.85349         0.53463        -0.12481
   C       -2.91508         0.18336         0.83101
   C       -3.00403        -1.03216         1.57672
   N       -3.09128        -1.99107         2.22756
   C       -1.88313         1.07571         1.25798
   N       -1.03228         1.79119         1.59744
   C       -4.94945        -0.29174        -0.60809
   C        5.49378       -17.25425        -0.55250
   O        4.27937       -17.13884        -0.51639
   C        6.20514       -18.55258        -0.49745
   C        5.63969       -19.81780        -0.39811
   C        6.49770       -20.92036        -0.37134
   C        7.88504       -20.73066        -0.43870
   C        8.44919       -19.45285        -0.53909
   C        7.59407       -18.34289        -0.57388
   C        7.84648       -16.88389        -0.69916
   C        9.10376       -16.32535        -0.86245
   C        9.34762       -14.92772        -1.04154
   N        9.57963       -13.79860        -1.19351
   C       10.30367       -17.10392        -0.89573
   N       11.29593       -17.70849        -0.92728
   C        6.54516       -16.20029        -0.65451
   C       -1.63313        -5.63818        -0.92806
   C       -2.36643        -6.86491        -0.89705
   C       -1.67634        -8.06982        -0.88295
   C       -0.27387        -8.03941        -0.85283
   C        0.45031        -6.82282        -0.84087
   C       -0.22863        -5.61034        -0.91089
   C        1.94987        -7.09788        -0.71295
   C        2.79400        -6.42664        -1.81646
   C        2.42864        -6.82585        -3.24506
   C        2.46536        -6.69730         0.70612
   C        2.41081        -5.21797         1.07682
   C        1.98434        -8.62517        -0.78856
   C        0.67068        -9.14898        -0.82324
   C        0.42688       -10.53006        -0.81497
   C        1.51560       -11.39040        -0.79767
   C        2.84095       -10.86157        -0.76361
   C        3.08209        -9.47705        -0.75673
   C       -5.16238        -1.63640        -0.78497
   C        6.35996       -14.82755        -0.67808
   C        3.73704       -11.99634        -0.70872
   C        3.01302       -13.19404        -0.68447
   C        1.52047       -12.92247        -0.75496
   S        5.43308       -12.25457        -0.69498
   C        5.19244       -14.02242        -0.66789
   C        3.82031       -14.33081        -0.66939
   C       -3.88054        -6.60868        -0.86738
   C       -3.90150        -5.08947        -0.90103
   C       -2.60863        -4.56941        -0.93099
   C       -4.88555        -4.10031        -0.85602
   C       -4.35198        -2.80110        -0.80900
   S       -2.58467        -2.84921        -0.89216
   C        0.97429       -13.56385        -2.06272
   C        0.77462       -13.40313         0.51988
   C       -4.54206        -7.04500         0.47776
   C       -4.61538        -7.12424        -2.13925
   C       -4.30401        -8.46362         0.99740
   C       -4.83013        -8.62611        -2.31272
   C       -0.51456       -13.39058        -2.34906
   C        0.69954       -14.91384         0.71976
   H       -6.95630         3.16382        -2.05211
   H       -5.55435         5.26138        -1.98826
   H       -3.25175         5.17597        -1.06132
   H       -2.30081         3.07565        -0.18273
   H        4.55368       -19.92248        -0.34498
   H        6.08899       -21.93070        -0.29506
   H        8.54715       -21.59880        -0.41364
   H        9.53030       -19.34926        -0.59057
   H       -2.19920        -9.02551        -0.88138
   H        0.30144        -4.65717        -0.94224
   H        3.85519        -6.66333        -1.62204
   H        2.70723        -5.33274        -1.70836
   H        2.57469        -7.90432        -3.41243
   H        3.05608        -6.28675        -3.96994
   H        1.37756        -6.58644        -3.47076
   H        3.50697        -7.05351         0.78231
   H        1.89115        -7.27835         1.44526
   H        2.94566        -4.58420         0.35357
   H        2.88752        -5.06143         2.05677
   H        1.37730        -4.84980         1.15447
   H       -0.59581       -10.90891        -0.80952
   H        4.10391        -9.09261        -0.71425
   H       -6.20666        -1.84234        -1.05781
   H        7.27507       -14.23624        -0.71803
   H        3.49115       -15.36616        -0.66707
   H       -5.96248        -4.27547        -0.83196
   H        1.21513       -14.63849        -2.02529
   H        1.56131       -13.15726        -2.90235
   H       -0.24504       -12.98516         0.49850
   H        1.26916       -12.93741         1.38779
   H       -5.62643        -6.86435         0.37243
   H       -4.19805        -6.33869         1.25022
   H       -4.06413        -6.73211        -3.00994
   H       -5.59999        -6.62758        -2.16138
   H       -4.60019        -9.24042         0.28054
   H       -4.89562        -8.62163         1.91235
   H       -3.24865        -8.62622         1.26141
   H       -3.88821        -9.19100        -2.27877
   H       -5.29375        -8.82124        -3.29275
   H       -5.50516        -9.03972        -1.55094
   H       -1.14280       -13.74329        -1.51674
   H       -0.79794       -13.97569        -3.23729
   H       -0.77737       -12.34201        -2.55245
   H        0.16412       -15.14498         1.65379
   H        1.69621       -15.37283         0.78909
   H        0.15731       -15.41379        -0.09663
*
