# ORCA input file
# FDICTF.out: Geometry 32
! B3LYP def2-TZVP def2/J RIJCOSX Grid4 TightSCF

%maxcore 6000
%tddft
  maxdim 5
  nroots 50
  end
%pal
  nprocs 6
  end


* xyz 0 1
   C        0.11292        -1.35880         0.97510
   O        0.66676        -1.74807         1.98245
   C        0.09486         0.02634         0.43875
   C        0.67159         1.16585         0.98525
   C        0.46650         2.38536         0.33084
   C       -0.30174         2.43556        -0.84065
   C       -0.86213         1.28146        -1.40256
   C       -0.65740         0.05803        -0.75454
   C       -1.06983        -1.32988        -1.09519
   C       -1.46891        -1.74451        -2.35758
   C       -1.53834        -3.11750        -2.73930
   N       -1.60343        -4.22873        -3.07537
   C       -1.76301        -0.82447        -3.41254
   N       -2.03664        -0.08402        -4.26595
   C       -0.76482        -2.16248         0.05678
   C       -1.20959        -3.37790         0.52969
   C       -2.32565        -4.17594         0.18121
   C       -3.42699        -3.89711        -0.64411
   C       -4.37907        -4.91588        -0.63337
   C       -4.04182        -5.97780         0.20535
   S       -2.52778        -5.74654         0.98241
   C       -5.08405        -6.97750         0.19572
   C       -6.09838        -6.51584        -0.70018
   C       -5.70111        -5.17322        -1.33861
   C       -6.64851        -3.98855        -0.99422
   C       -8.09644        -4.01248        -1.48048
   C       -5.37651        -5.31830        -2.85794
   C       -6.44452        -5.88856        -3.78948
   C       -7.23010        -7.29839        -0.90674
   C       -7.34561        -8.51328        -0.20939
   C       -6.34900        -8.94743         0.70120
   C       -5.20037        -8.18900         0.89477
   C       -6.73039       -10.29129         1.31775
   C       -5.65655       -11.37507         1.05370
   C       -5.36555       -11.64065        -0.42203
   C       -7.05234       -10.17427         2.83597
   C       -5.88962        -9.85476         3.76962
   C       -8.03436       -10.59525         0.58886
   C       -8.38457        -9.53887        -0.28543
   C       -9.54638        -9.59699        -1.07418
   C      -10.34546       -10.73139        -0.98751
   C      -10.00611       -11.77066        -0.07148
   C       -8.84797       -11.71291         0.71744
   C      -11.04641       -12.76670        -0.16731
   C      -12.00555       -12.39887        -1.11453
   C      -11.63545       -11.06707        -1.75216
   C      -11.35582       -11.31474        -3.26291
   C      -10.92192       -10.10450        -4.08487
   C      -12.69508        -9.96412        -1.49772
   C      -14.08423       -10.22356        -2.07702
   C      -13.00733       -13.36492        -1.25805
   C      -12.82229       -14.48027        -0.41799
   S      -11.36798       -14.28337         0.56717
   C      -13.77208       -15.52588        -0.28958
   C      -13.84466       -16.69625         0.42938
   C      -12.89737       -17.52414         1.16066
   C      -11.55816       -17.70788         0.86074
   C      -10.70305       -18.54625         1.64122
   N       -9.99779       -19.20981         2.28394
   C      -10.96493       -17.19164        -0.33110
   N      -10.47521       -16.81778        -1.31648
   C      -13.67907       -18.35236         2.11699
   C      -13.29053       -19.22058         3.14497
   C      -14.28534       -19.91886         3.84157
   C      -15.64348       -19.77486         3.52369
   C      -16.03779       -18.91174         2.49555
   C      -15.05077       -18.21214         1.81364
   C      -15.21949       -17.23692         0.70564
   O      -16.25758       -16.90713         0.16959
   H        1.25587         1.09028         1.90428
   H        0.90126         3.30180         0.73596
   H       -0.47081         3.39497        -1.33497
   H       -1.44366         1.35562        -2.31848
   H       -0.64176        -3.70717         1.41023
   H       -3.53108        -2.96100        -1.18689
   H       -6.15875        -3.07731        -1.37982
   H       -6.64613        -3.88920         0.10380
   H       -8.17879        -3.92478        -2.57268
   H       -8.64592        -3.16448        -1.04351
   H       -8.62080        -4.92707        -1.16835
   H       -4.47624        -5.94792        -2.93722
   H       -5.06378        -4.32306        -3.21615
   H       -6.71843        -6.91848        -3.51687
   H       -6.04520        -5.91991        -4.81560
   H       -7.36476        -5.29154        -3.81366
   H       -8.00999        -6.99197        -1.60291
   H       -4.39958        -8.51866         1.55871
   H       -5.98416       -12.30593         1.54899
   H       -4.72668       -11.07265         1.56168
   H       -6.26182       -11.99683        -0.95212
   H       -4.58370       -12.40670        -0.53918
   H       -5.01591       -10.72837        -0.92978
   H       -7.50965       -11.12927         3.14606
   H       -7.83870        -9.41077         2.95508
   H       -5.08062       -10.59692         3.69799
   H       -6.24411        -9.85221         4.81263
   H       -5.45767        -8.86271         3.56816
   H       -9.80545        -8.77001        -1.73678
   H       -8.59814       -12.52730         1.40145
   H      -12.26546       -11.75134        -3.70627
   H      -10.58713       -12.10165        -3.33328
   H      -11.65742        -9.28608        -4.04736
   H      -10.80063       -10.39464        -5.14017
   H       -9.95513        -9.70450        -3.74594
   H      -12.29932        -9.01572        -1.89499
   H      -12.77473        -9.82257        -0.40765
   H      -14.74886        -9.36940        -1.87305
   H      -14.55115       -11.10935        -1.62152
   H      -14.06272       -10.37303        -3.16824
   H      -13.85969       -13.30254        -1.93525
   H      -14.72318       -15.29824        -0.78962
   H      -12.24651       -19.35914         3.42001
   H      -13.99025       -20.58921         4.65233
   H      -16.39218       -20.33822         4.08436
   H      -17.08474       -18.77550         2.21518
*
