# ORCA input file
# H2.out: Geometry 34
! B3LYP def2-TZVP def2/J RIJCOSX Grid4 TightSCF

%maxcore 6000
%tddft
  maxdim 5
  nroots 50
  end
%pal
  nprocs 6
  end


* xyz 0 1
   C        2.16198        -2.52513        -2.22716
   O        2.60751        -2.38511        -3.34833
   C        2.92380        -2.65751        -0.95797
   C        4.30088        -2.70481        -0.77642
   C        4.80065        -2.82213         0.52226
   C        3.90838        -2.87729         1.60340
  Cl        4.54777        -3.01374         3.21603
   C        2.51803        -2.82506         1.43292
   C        2.02470        -2.72408         0.12948
   C        0.63834        -2.59306        -0.39224
   C       -0.47244        -2.23194         0.35330
   C       -1.65237        -1.71134        -0.26208
   N       -2.58651        -1.23232        -0.76064
   C       -0.47649        -2.23135         1.78097
   N       -0.49324        -2.25478         2.94312
   C        0.72019        -2.64815        -1.84108
   C       -0.20401        -2.84374        -2.83843
   C       -1.50917        -3.39285        -2.83669
   S       -2.08721        -4.52107        -1.59813
   C       -3.60737        -4.68042        -2.41508
   C       -3.64050        -3.90664        -3.59661
   C       -2.46362        -3.17843        -3.84688
   C       -2.27035        -2.19542        -4.96491
   C       -2.30659        -0.73946        -4.47264
   S       -5.13890        -4.09060        -4.51043
   C       -5.70556        -5.21456        -3.30599
   C       -4.80800        -5.40407        -2.24200
   N       -5.33619        -6.31670        -1.34684
   C       -4.50568        -6.92686        -0.31453
   C       -6.57585        -6.73381        -1.83865
   C       -6.79774        -6.07851        -3.09268
   C       -7.86832        -6.46777        -3.96004
   N       -8.11234        -6.01359        -5.18122
   S       -9.38306        -6.89490        -5.77612
   N       -9.63798        -7.88560        -4.47335
   C       -8.74452        -7.54735        -3.55322
   C       -8.59094        -8.10701        -2.24424
   C       -7.55321        -7.67418        -1.35816
   N       -7.72710        -8.32862        -0.13448
   C       -7.17982        -8.00360         1.18266
   C       -7.32709        -6.54153         1.63795
   C       -8.79417        -9.20205        -0.26883
   C       -9.34514        -9.07585        -1.55332
   S      -10.66484       -10.16819        -1.86139
   C      -10.45087       -10.85151        -0.24528
   C       -9.43442       -10.20734         0.49473
   S       -9.25583       -10.92172         2.05799
   C      -10.49687       -12.14170         1.68091
   C      -11.06741       -11.94229         0.41033
   C      -12.28024       -12.64971        -0.13486
   C      -12.08386       -13.28365        -1.51994
   C      -10.79907       -13.06761         2.72197
   C      -11.17446       -14.38905         2.60297
   C      -11.68115       -15.26657         3.65923
   C      -12.05014       -14.91300         4.94475
   C      -11.98204       -13.57592         5.44820
   N      -11.93544       -12.50513         5.89820
   C      -12.52901       -15.85794         5.90570
   N      -12.91203       -16.60641         6.70817
   C      -11.77852       -16.63733         3.09196
   C      -12.23818       -17.84151         3.63497
   C      -12.22170       -18.97876         2.81576
  Cl      -12.80966       -20.48369         3.45875
   C      -11.75391       -18.94736         1.49339
   C      -11.28740       -17.74556         0.96129
   C      -11.31485       -16.61042         1.76272
   C      -10.89794       -15.23629         1.39970
   O      -10.36145       -14.91034         0.35888
   C       -4.15110        -8.40331        -0.54490
   C       -3.30862        -8.63845        -1.81439
   C       -3.43205        -8.92951         0.71249
   C       -3.40863       -10.45111         0.82354
   C       -4.06650        -8.64909        -3.14424
   C       -8.79172        -6.08783         1.78427
   C       -9.55015        -5.80030         0.48622
   C       -6.54626        -6.37472         2.96054
   C       -6.22445        -4.92583         3.32870
   H        4.96541        -2.64572        -1.64079
   H        5.87361        -2.86761         0.71504
   H        1.87156        -2.86689         2.30669
   H        0.18655        -2.58963        -3.83275
   H       -3.04934        -2.36198        -5.72583
   H       -1.30747        -2.39298        -5.46655
   H       -3.25751        -0.51562        -3.96564
   H       -2.18075        -0.04433        -5.31630
   H       -1.50256        -0.54848        -3.74670
   H       -4.98260        -6.79155         0.66170
   H       -3.57846        -6.34028        -0.27339
   H       -6.12949        -8.31674         1.22777
   H       -7.71379        -8.64074         1.90092
   H       -6.84873        -5.89192         0.88402
   H      -13.08618       -11.89468        -0.19015
   H      -12.62295       -13.40527         0.58263
   H      -11.83126       -12.53029        -2.28086
   H      -13.01076       -13.78284        -1.84371
   H      -11.27764       -14.02649        -1.49404
   H      -10.67895       -12.66709         3.73228
   H      -12.60900       -17.92759         4.65252
   H      -11.76465       -19.86342         0.90133
   H      -10.90952       -17.67793        -0.06037
   H       -5.09572        -8.96564        -0.65194
   H       -2.80447        -9.61141        -1.70422
   H       -2.49768        -7.88845        -1.84709
   H       -3.92058        -8.51688         1.61284
   H       -2.40244        -8.52953         0.72828
   H       -4.43160       -10.85979         0.86814
   H       -2.87717       -10.77437         1.73133
   H       -2.90271       -10.92269        -0.03231
   H       -4.94290        -9.31542        -3.09788
   H       -3.41478        -9.01363        -3.95297
   H       -4.42522        -7.65483        -3.44157
   H       -8.79373        -5.16833         2.39075
   H       -9.33809        -6.83785         2.38445
   H       -8.95792        -5.16139        -0.18913
   H      -10.48968        -5.26997         0.70597
   H       -9.81632        -6.71108        -0.06720
   H       -5.59837        -6.93703         2.89375
   H       -7.11700        -6.85660         3.77456
   H       -5.66360        -4.42797         2.52016
   H       -5.60884        -4.87594         4.23973
   H       -7.13244        -4.33348         3.51639
*
