# ORCA input file
# i-cc23.out: Geometry 69
! B3LYP def2-TZVP def2/J RIJCOSX Grid4 TightSCF

%maxcore 6000
%tddft
  maxdim 5
  nroots 50
  end
%pal
  nprocs 6
  end


* xyz 0 1
   C       -0.87374        -4.46936        -0.35846
   C        0.54846        -4.30082        -0.55204
   S        1.18972        -4.18798        -2.19157
   C        2.77167        -3.91136        -1.56851
   C        2.80843        -3.89564        -0.18563
   C        1.54108        -4.12317         0.40347
   C        4.06457        -3.60716        -2.13648
   C        4.96765        -3.44183        -1.05373
   C        4.22813        -3.59095         0.29693
   C        4.45759        -3.39465        -3.46170
   C        5.77147        -3.01940        -3.69223
   C        6.68809        -2.87135        -2.61938
   C        6.28830        -3.07794        -1.28858
   C        6.40476        -2.60736        -5.03280
   C        7.82536        -2.27802        -4.58308
   C        7.94182        -2.43270        -3.21100
   C        9.01043        -1.79898        -5.19408
   C       10.03032        -1.59501        -4.27806
   S        9.51394        -2.00458        -2.63772
   C        4.34048        -2.23193         1.00815
   C        4.73417        -4.73432         1.17982
   C        6.38966        -3.71759        -6.08781
   C        5.62068        -1.36419        -5.49862
   C        5.61997        -5.71269         0.72080
   C        6.05204        -6.73977         1.56755
   C        5.61814        -6.82068         2.89565
   C        4.70780        -5.84781         3.34358
   C        4.27252        -4.82746         2.50346
   C        3.40381        -1.21489         0.79734
   C        3.59860         0.06043         1.33760
   C        4.73605         0.36233         2.09633
   C        5.66406        -0.66746         2.31780
   C        5.46890        -1.94156         1.79132
   C        4.45148        -1.51179        -6.25595
   C        3.64786        -0.41325        -6.56291
   C        3.98204         0.87713        -6.12905
   C        5.15625         1.01856        -5.37326
   C        5.96229        -0.07753        -5.06282
   C        6.69678        -3.41128        -7.42209
   C        6.63089        -4.38752        -8.41576
   C        6.26149        -5.70706        -8.11290
   C        6.00058        -6.01791        -6.77225
   C        6.06339        -5.04291        -5.77523
   C        6.11397        -7.90486         3.82636
   C        5.00487        -8.80519         4.38174
   C        4.97569         1.74289         2.66327
   C        5.06655         1.76857         4.19235
   C        6.07957        -6.74635        -9.19399
   C        4.60959        -6.91077        -9.61120
   C        3.13691         2.08885        -6.46848
   C        1.65712         1.81003        -6.73406
   S       -1.85420        -5.35677        -1.50474
   C       -3.30181        -4.97839        -0.66576
   C       -3.07029        -4.21963         0.46817
   C       -1.66797        -3.95349         0.65257
   C       -4.09731        -3.78390         1.38970
   O       -1.20361        -3.21136         1.69067
   C       -0.90210        -1.84821         1.37266
   C       -5.37427        -3.41626         1.10946
   C       -6.41188        -3.44822         2.21624
   C       -7.69640        -3.42842         1.48689
   C       -7.50468        -3.25177         0.11881
   C       -6.06845        -3.09632        -0.14961
   S       -9.35320        -3.55757         1.90746
   C       -9.80569        -3.37509         0.23619
   C       -8.73176        -3.21374        -0.60788
   O       -6.20097        -3.52125         3.40560
   C       -5.54414        -2.53324        -1.29453
   C       -6.39730        -2.19697        -2.39339
   C       -4.17697        -2.13368        -1.41914
   N       -3.08443        -1.75392        -1.52766
   N       -7.11813        -1.93996        -3.26765
   C       11.37605        -1.09259        -4.50676
   S       11.90659         0.36369        -3.66624
   C       13.40894         0.37995        -4.47344
   C       13.54902        -0.66989        -5.37011
   C       12.37018        -1.52249        -5.36675
   C       14.71197        -1.07628        -6.10744
   O       12.38405        -2.61837        -6.14964
   C       11.74998        -3.81626        -5.71544
   C       15.92420        -0.51950        -6.39695
   C       17.01011        -1.48886        -6.83496
   C       18.25673        -0.71284        -6.70569
   C       17.99616         0.60238        -6.33797
   C       16.53753         0.80231        -6.25692
   S       19.92919        -1.02830        -6.90390
   C       20.30039         0.61909        -6.48639
   C       19.18589         1.38060        -6.21851
   O       16.85740        -2.64396        -7.16529
   C       15.93269         2.04513        -6.24845
   C       16.71294         3.23633        -6.09987
   C       14.54499         2.24950        -6.50602
   N       13.42188         2.44379        -6.73153
   N       17.36447         4.18856        -5.96239
   H        1.32687        -4.15433         1.47083
   H        3.74273        -3.48859        -4.28078
   H        6.98462        -2.91838        -0.46344
   H        9.12896        -1.57141        -6.25368
   H        5.99054        -5.67143        -0.30416
   H        6.75140        -7.48939         1.18644
   H        4.34145        -5.88199         4.37294
   H        3.58598        -4.06846         2.88593
   H        2.52039        -1.41346         0.18828
   H        2.85438         0.83944         1.14969
   H        6.55993        -0.46678         2.91163
   H        6.20491        -2.72280         1.98903
   H        4.15614        -2.49948        -6.61351
   H        2.74267        -0.57553        -7.14945
   H        5.44625         2.00908        -5.01009
   H        6.85854         0.06827        -4.45801
   H        6.95686        -2.38582        -7.69343
   H        6.86002        -4.11508        -9.45014
   H        5.71732        -7.03903        -6.50025
   H        5.82832        -5.31727        -4.74643
   H        6.65198        -7.43459         4.66928
   H        6.85686        -8.52148         3.29550
   H        4.26450        -8.22628         4.95671
   H        5.42168        -9.57380         5.05230
   H        4.46442        -9.31545         3.56868
   H        4.17607         2.42124         2.32459
   H        5.91307         2.14535         2.23963
   H        4.13426         1.40315         4.65212
   H        5.25871         2.78790         4.56277
   H        5.88292         1.12662         4.55761
   H        6.46760        -7.71482        -8.83582
   H        6.68369        -6.47114       -10.07350
   H        3.99023        -7.22442        -8.75563
   H        4.49591        -7.66740       -10.40405
   H        4.19725        -5.96084        -9.98724
   H        3.57714         2.58625        -7.35313
   H        3.23485         2.82105        -5.64921
   H        1.50859         1.17484        -7.62113
   H        1.11024         2.74788        -6.91527
   H        1.18566         1.29889        -5.87898
   H       -4.25745        -5.35679        -1.02150
   H       -3.84922        -3.82434         2.45780
   H       -0.45920        -1.40247         2.27315
   H       -1.81608        -1.30278         1.08863
   H       -0.18443        -1.78736         0.53886
   H      -10.85934        -3.39256        -0.04231
   H       -8.82954        -3.07003        -1.68201
   H       14.15299         1.12672        -4.20934
   H       14.64775        -2.11548        -6.45325
   H       11.88670        -3.95933        -4.63120
   H       12.23830        -4.63401        -6.26135
   H       10.67345        -3.81214        -5.94431
   H       21.33898         0.94807        -6.46042
   H       19.23165         2.43076        -5.93971
*
