# ORCA input file
# M34.out: Geometry 47
! B3LYP def2-TZVP def2/J RIJCOSX Grid4 TightSCF

%maxcore 6000
%tddft
  maxdim 5
  nroots 50
  end
%pal
  nprocs 6
  end


* xyz 0 1
   C       -1.19310        -0.52550         0.10064
   C       -1.83687        -0.37330         1.37737
   C       -1.27956        -1.05732         2.48530
   C       -0.19584        -1.91013         2.26793
   C        0.42590        -2.07385         0.98579
   C       -0.12023        -1.38600        -0.11681
   O        0.40206        -1.54659        -1.36886
   C       -0.37981        -2.30146        -2.31877
   O       -1.74950        -0.90359         3.76034
   C       -1.45244         0.36590         4.38614
   S        0.52168        -2.90950         3.53991
   C        1.70295        -3.50520         2.39395
   C        1.55362        -2.95651         1.09934
   S       -1.83794         0.52478        -1.16566
   C       -3.04564         1.09515        -0.05098
   C       -2.95693         0.52602         1.23609
   C       -4.15109         1.95932        -0.06087
   C       -4.73593         1.88007         1.22936
   N       -4.00170         0.99994         2.02943
   S       -5.00266         3.00632        -1.13268
   C       -6.18808         3.35755         0.15045
   C       -5.88416         2.66920         1.34943
   C        2.83352        -4.34447         2.35991
   C        3.35610        -4.25244         1.04165
   N        2.57551        -3.40401         0.27323
   S        3.83590        -5.33708         3.36031
   C        4.98690        -5.57732         2.02158
   C        4.55936        -4.93569         0.85365
   C       -7.31767         4.21151         0.07005
   C       -7.89549         4.93539        -0.95805
   C        6.13200        -6.39140         2.21673
   C        7.27516        -6.52747         1.45234
   C       -7.42980         4.95915        -2.36604
   C       -8.43629         5.73071        -3.13200
   C       -9.45489         6.17077        -2.26662
   C       -9.12145         5.73675        -0.88356
   C        8.09321        -7.77795         1.61346
   C        9.00547        -7.81534         0.43459
   C        8.83883        -6.63796        -0.32261
   C        7.86393        -5.75595         0.36842
   C       -8.43604         5.98971        -4.49751
   C       -9.50766         6.70989        -5.01141
   C      -10.54964         7.13646        -4.16813
   C      -10.53855         6.88649        -2.79750
   C        9.89895        -8.81763         0.06605
   C       10.63085        -8.63129        -1.10341
   C       10.47388        -7.45916        -1.86595
   C        9.59075        -6.45197        -1.48930
   F       -9.57352         7.00682        -6.30576
   F      -11.56758         7.79532        -4.71705
   O       -6.43238         4.44221        -2.83840
   C       -9.85349         6.07816         0.24118
   C       -9.47556         5.71796         1.57213
   C      -11.05966         6.84235         0.17181
   C       -4.63785         0.24257         3.11332
   C       -5.61208        -0.80624         2.58066
   C        3.12451        -2.73003        -0.91138
   C        3.22218        -3.63265        -2.13411
   C       -0.70094        -3.71050        -1.85040
   C        0.01576         0.52562         4.73179
   O        8.00421        -8.60904         2.49262
   C        7.73078        -4.39727         0.12022
   F       11.19619        -7.32114        -2.97412
   F       11.49045        -9.55405        -1.53000
   N      -12.04538         7.45648         0.12676
   N       -9.18438         5.43761         2.66234
   C        7.06396        -3.50296         1.00871
   C        8.31766        -3.75730        -1.01452
   N        8.75798        -3.22887        -1.95183
   N        6.53598        -2.74419         1.71359
   H        0.24266        -2.30919        -3.22456
   H       -1.30612        -1.75106        -2.55445
   H       -2.07407         0.37957         5.29278
   H       -1.79633         1.18222         3.72812
   H       -6.50208         2.78028         2.24126
   H        5.10554        -5.00022        -0.08355
   H       -7.82697         4.26602         1.03206
   H        6.09633        -7.09124         3.06252
   H       -7.63025         5.63702        -5.14345
   H      -11.37192         7.25658        -2.20428
   H       10.02686        -9.71982         0.66683
   H        9.51750        -5.56876        -2.12011
   H       -5.14813         0.96537         3.76943
   H       -3.84926        -0.24849         3.69328
   H       -6.41330        -0.34667         1.98120
   H       -6.07795        -1.35451         3.41384
   H       -5.08035        -1.53475         1.94815
   H        4.11858        -2.34076        -0.63360
   H        2.47757        -1.87657        -1.13142
   H        3.84098        -4.52332        -1.94808
   H        3.68111        -3.07790        -2.96669
   H        2.22892        -3.97769        -2.45541
   H        0.21193        -4.26387        -1.58540
   H       -1.21889        -4.25829        -2.65355
   H       -1.35891        -3.70166        -0.96853
   H        0.64108         0.54073         3.82690
   H        0.36088        -0.29551         5.37662
   H        0.16738         1.47625         5.26757
*
