# ORCA input file
# M8.out: Geometry 83
! B3LYP def2-TZVP def2/J RIJCOSX Grid4 TightSCF

%maxcore 6000
%tddft
  maxdim 5
  nroots 50
  end
%pal
  nprocs 6
  end


* xyz 0 1
   C       -0.33965         0.26688        -0.38377
   C       -0.85681         0.57339         0.92275
   C       -0.15402         0.16596         2.08311
   C        0.99235        -0.59849         1.85691
   C        1.45866        -0.94501         0.54497
   C        0.78994        -0.50752        -0.61212
   O        1.26288        -0.87204        -1.82760
   C        0.34336        -1.37114        -2.82090
   O       -0.61279         0.45189         3.33344
   C       -0.22693         1.73078         3.87099
   O        1.76666        -1.18292         2.83688
   C        2.70395        -1.93069         2.17409
   C        2.57406        -1.80181         0.78055
   O       -1.14410         0.75037        -1.38965
   C       -2.20204         1.31871        -0.75463
   C       -2.10222         1.24243         0.64186
   C       -3.39746         1.94741        -1.09332
   C       -4.04490         2.22083         0.15361
   N       -3.23481         1.80266         1.20951
   S       -4.31090         2.49986        -2.43523
   C       -5.59781         3.07897        -1.34092
   C       -5.29752         2.83542         0.01090
   C        3.71838        -2.86734         2.43315
   C        4.19008        -3.25595         1.13716
   N        3.49428        -2.59438         0.14142
   S        4.57016        -3.72944         3.67275
   C        5.54242        -4.60167         2.44950
   C        5.20426        -4.20968         1.14845
   C       -6.64141         3.76418        -2.00814
   C       -7.84883         4.29395        -1.59855
   C        6.38800        -5.65233         2.87268
   C        7.26382        -6.48553         2.19601
   C       -8.53068         4.06441        -0.29723
   C       -9.91253         4.59413        -0.46603
   C      -10.04092         5.18948        -1.73627
   C       -8.75087         5.06813        -2.45363
   C        7.56546        -7.80400         2.84945
   C        8.18401        -8.64830         1.79276
   C        8.35809        -7.88292         0.62262
   C        7.90350        -6.48948         0.89224
   C      -10.96924         4.52868         0.43604
   C      -12.18822         5.06935         0.03853
   C      -12.32554         5.67684        -1.22203
   C      -11.26552         5.74911        -2.11958
   C        8.55431        -9.98584         1.87645
   C        9.11128       -10.57230         0.74501
   C        9.29839        -9.82199        -0.42935
   C        8.93079        -8.47983        -0.50951
   F      -13.25315         5.02089         0.83405
   F      -13.50935         6.18280        -1.55300
   O       -8.09343         3.53033         0.70868
   C       -8.47025         5.64617        -3.67998
   C       -7.19284         5.57495        -4.32056
   C       -9.42475         6.41004        -4.42191
   C       -3.67061         1.69442         2.59877
   C       -4.08166         0.27469         2.97689
   C        3.76677        -2.72753        -1.28693
   C        3.34938        -4.09017        -1.83526
   C       -0.54182        -2.48704        -2.29684
   C        1.23741         1.79656         4.26685
   O        7.31636        -8.13083         3.99163
   C        8.23058        -5.39652         0.10045
   F        9.84640       -10.42850        -1.48108
   F        9.47941       -11.85050         0.74798
   N      -10.17037         7.03880        -5.05426
   N       -6.17075         5.53245        -4.87304
   C        8.07304        -4.04900         0.53751
   C        8.84976        -5.53077        -1.18074
   N        9.33231        -5.62788        -2.23398
   N        7.95865        -2.94274         0.87689
   H        1.00082        -1.73636        -3.62293
   H       -0.25777        -0.54050        -3.21913
   H       -0.87512         1.86977         4.74885
   H       -0.47297         2.51928         3.13696
   H       -5.99469         3.12125         0.79638
   H        5.63923        -4.66167         0.26219
   H       -6.42670         3.89051        -3.06983
   H        6.25439        -5.97271         3.91451
   H      -10.85652         4.05919         1.41425
   H      -11.43604         6.22851        -3.08101
   H        8.41163       -10.55998         2.79357
   H        9.11080        -7.95552        -1.44611
   H       -4.50815         2.39561         2.72308
   H       -2.85838         2.04883         3.24844
   H       -4.85983        -0.10266         2.29603
   H       -4.48420         0.25489         4.00168
   H       -3.21316        -0.39885         2.94014
   H        4.84525        -2.55812        -1.44119
   H        3.22587        -1.92043        -1.79325
   H        3.85980        -4.91157        -1.31154
   H        3.60576        -4.16442        -2.90364
   H        2.26440        -4.24090        -1.72316
   H        0.06142        -3.28435        -1.83657
   H       -1.11765        -2.92374        -3.12745
   H       -1.25831        -2.12291        -1.54603
   H        1.49257         0.96852         4.94345
   H        1.44381         2.74863         4.78163
   H        1.89500         1.73658         3.38699
*
