# ORCA input file
# NITV.out: Geometry 179
! B3LYP def2-TZVP def2/J RIJCOSX Grid4 TightSCF

%maxcore 6000
%tddft
  maxdim 5
  nroots 50
  end
%pal
  nprocs 6
  end


* xyz 0 1
   C       -0.46756        -1.96794        -0.02366
   C        5.00748         4.57405        -0.02868
   C       -0.96698        -3.30325        -0.03489
   C       -0.41830        -4.54903        -0.11183
   C        5.40157         5.94811        -0.03005
   C        4.69935         7.12218        -0.05316
   C        0.93275        -5.12255        -0.17111
   C        0.76407        -6.53176        -0.33938
   C       -0.57862        -6.94534        -0.37557
   C       -1.40415        -5.70826        -0.21113
   C        5.28670         8.46885        -0.13839
   C        4.20422         9.38911        -0.18122
   C        2.94614         8.76990        -0.11676
   C        3.20000         7.29479        -0.03683
   C        2.24484        -4.65875        -0.09499
   C        3.32927        -5.56996        -0.19530
   C        3.14368        -6.93520        -0.38752
   C        1.82313        -7.43506        -0.46463
   C        1.50929        -8.79765        -0.66661
   C        0.17649        -9.20919        -0.70126
   C       -0.88630        -8.28481        -0.54955
   C        4.27117        -7.88494        -0.51191
   N        3.92748        -9.23011        -0.76631
   C        2.62421        -9.75689        -0.86942
   C        5.04886       -10.16368        -0.94028
   C        5.66587       -10.66430         0.37637
   C        4.63102       -11.33385         1.28394
   C        6.82550       -11.60682         0.04348
   C        1.79774         9.54379        -0.16090
   C        1.93539        10.95005        -0.28233
   C        3.18872        11.55817        -0.36375
   C        4.35961        10.77000        -0.31062
   C        5.67168        11.28760        -0.40498
   C        6.74683        10.40100        -0.34836
   C        6.57178         8.99709        -0.21420
   C        5.84529        12.74442        -0.60116
   N        4.65480        13.51320        -0.63395
   C        3.33881        13.02419        -0.53778
   C        4.77844        14.96203        -0.85352
   C        4.51787        15.81376         0.39835
   C        5.54505        15.54732         1.49881
   C        4.48921        17.29102        -0.00383
   O        5.43836        -7.55047        -0.41772
   O        2.43276       -10.93218        -1.11774
   O       -2.61365        -5.62325        -0.17906
   O        2.35422         6.42204         0.02067
   O        6.93536        13.26573        -0.74084
   O        2.38419        13.77674        -0.60833
   C       -1.29649        -0.84957         0.04957
   C       -0.63136         0.39201        -0.00127
   C        0.75714         0.23270        -0.11496
   S        1.20124        -1.45728        -0.16661
   C        5.94009         3.53147        -0.04105
   C        5.38960         2.23673        -0.10282
   C        3.98729         2.28392        -0.13403
   S        3.38179         3.92117        -0.08359
   C        1.72505         1.28553        -0.15325
   C        3.08127         1.17037        -0.17392
   C        6.22647         0.98669        -0.10841
   C        6.63266         0.47012         1.29179
   C        5.42435        -0.00217         2.10386
   C        7.68387        -0.63364         1.15103
   C       -1.35320         1.70796         0.08752
   C       -1.63910         2.19473         1.52734
   C       -0.35525         2.52036         2.29328
   C       -2.58148         3.39968         1.48397
   H       -2.06414        -3.34288         0.00101
   H        6.49287         6.05712        -0.03480
   H        2.47184        -3.60531         0.05447
   H        4.35440        -5.20008        -0.12444
   H       -0.02645       -10.26993        -0.86039
   H       -1.92506        -8.62015        -0.57748
   H        5.81754        -9.64186        -1.52450
   H        4.66240       -11.01212        -1.51797
   H        6.07972        -9.78564         0.90006
   H        4.14024       -12.17843         0.77473
   H        3.84252       -10.62741         1.58630
   H        5.10440       -11.71295         2.20346
   H        6.46863       -12.48607        -0.51928
   H        7.31613       -11.97241         0.95915
   H        7.58964       -11.10216        -0.57013
   H        0.80950         9.08217        -0.11128
   H        1.05377        11.59202        -0.32825
   H        7.75333        10.81758        -0.42403
   H        7.45544         8.35563        -0.18531
   H        4.05366        15.23408        -1.63187
   H        5.79364        15.13895        -1.22925
   H        3.51699        15.54520         0.77370
   H        6.56555        15.78325         1.15404
   H        5.53714        14.49298         1.81671
   H        5.33214        16.16079         2.38855
   H        5.46535        17.61236        -0.40677
   H        4.25532        17.93155         0.86049
   H        3.72880        17.48297        -0.77738
   H       -2.38068        -0.94744         0.13187
   H        7.01523         3.72388        -0.02044
   H        1.29739         2.28981        -0.12843
   H        3.53699         0.17776        -0.19277
   H        7.14320         1.19209        -0.68450
   H        5.70626         0.17638        -0.64587
   H        7.09476         1.31595         1.83343
   H        4.90905        -0.83576         1.59641
   H        4.69071         0.80431         2.25566
   H        5.73548        -0.36593         3.09556
   H        7.28307        -1.48886         0.58107
   H        8.00898        -1.01093         2.13329
   H        8.57567        -0.26708         0.61727
   H       -2.31307         1.60529        -0.44305
   H       -0.79429         2.49273        -0.44743
   H       -2.15394         1.37187         2.05695
   H        0.20138         3.33666         1.80212
   H        0.31334         1.64850         2.36323
   H       -0.58498         2.85150         3.31847
   H       -2.11770         4.23876         0.93828
   H       -2.82728         3.75581         2.49650
   H       -3.52591         3.14844         0.97481
*
