# ORCA input file
# o-IO1.out: Geometry 39
! B3LYP def2-TZVP def2/J RIJCOSX Grid4 TightSCF

%maxcore 6000
%tddft
  maxdim 5
  nroots 50
  end
%pal
  nprocs 6
  end


* xyz 0 1
   C        0.83739        -3.38753         2.35554
   O        0.84056        -3.47113         1.13727
   C       -0.26422        -3.86549         3.23279
   C       -1.42318        -4.53571         2.85351
   C       -2.29780        -4.92903         3.86117
   C       -2.01026        -4.64633         5.20750
   C       -0.85733        -3.96233         5.58226
   C        0.03290        -3.56526         4.57470
   C        1.33895        -2.86194         4.62876
   C        1.89084        -2.34577         5.79056
   C        3.14861        -1.67049         5.86517
   N        4.16709        -1.12038         5.97489
   C        1.22833        -2.41647         7.05597
   N        0.70506        -2.45688         8.09297
   C        1.87243        -2.81669         3.26228
   F       -3.41865        -5.58697         3.57894
   F       -2.87294        -5.05918         6.13409
   C       22.77531         2.08835        -8.34231
   O       22.91584         3.09584        -7.68180
   C       23.59739         1.65367        -9.50661
   C       24.65035         2.32982       -10.11380
   C       25.26033         1.72643       -11.20957
   C       24.82853         0.46636       -11.66538
   C       23.77604        -0.21105       -11.05365
   C       23.14506         0.39793        -9.96118
   C       22.04421        -0.06030        -9.07667
   C       21.60541        -1.37000        -8.96964
   C       20.80586        -1.82122        -7.87768
   N       20.18321        -2.21252        -6.97813
   C       22.00192        -2.39283        -9.88515
   N       22.29790        -3.22217       -10.64380
   C       21.69787         1.05156        -8.20382
   F       26.25983         2.33129       -11.84602
   F       25.45003        -0.08326       -12.70651
   C        3.14098        -2.37272         2.92031
   C        3.84963        -2.32001         1.69495
   C        3.52111        -2.63822         0.36980
   C        4.59387        -2.47232        -0.52134
   C        5.77987        -2.01017         0.09686
   S        5.52226        -1.76602         1.79366
   C        7.05878        -1.78113        -0.50827
   S        7.22765        -1.49358        -2.24708
   C        8.92509        -1.25004        -2.06031
   C        9.35097        -1.41839        -0.74662
   C        8.29843        -1.70655         0.13757
   C       10.04249        -0.94225        -2.92778
   C       11.21227        -0.95946        -2.11259
   C       10.86800        -1.34391        -0.66508
   C       10.10003        -0.62201        -4.29569
   C       11.33582        -0.30108        -4.84498
   C       12.50759        -0.33976        -4.03356
   C       12.44983        -0.64972        -2.66463
   C       11.68124         0.10644        -6.28716
   C       13.19857         0.16161        -6.20923
   C       13.62712        -0.05590        -4.90823
   C       14.25774         0.39309        -7.11203
   C       15.50509         0.33727        -6.49416
   S       15.34612         0.01123        -4.76333
   C       16.81906         0.43813        -7.09050
   S       18.11077         1.23617        -6.23641
   C       19.27029         0.84250        -7.48939
   C       18.63653         0.13562        -8.50934
   C       17.26252        -0.10072        -8.30887
   C       20.59512         1.35925        -7.43972
   O        4.61122        -2.73891        -1.83994
   C        3.50496        -3.43264        -2.42724
   C        2.39117        -2.50373        -2.92468
   C        2.72848        -1.82755        -4.26621
   C        1.08076        -3.29259        -3.03438
   C        4.03093        -1.02702        -4.30756
   C       11.37562        -0.31732         0.37088
   C       10.85102         1.10361         0.18694
   C       11.38132        -2.77651        -0.31685
   C       12.89228        -2.99413        -0.32860
   C       11.18206        -0.90983        -7.33896
   C       11.72367        -2.32751        -7.17697
   C       11.16556         1.54079        -6.61652
   C        9.65341         1.75209        -6.60811
   C       16.44505        -0.88778        -9.29915
   C       17.00151        -2.30180        -9.61155
   C       16.46351        -3.37960        -8.65457
   C       16.67112        -3.11623        -7.16429
   C       16.71080        -2.68519       -11.06559
   H       -1.63658        -4.76459         1.80802
   H       -0.69948        -3.76640         6.64025
   H       24.99479         3.29770        -9.74666
   H       23.48334        -1.17875       -11.45570
   H        3.74456        -2.01808         3.75663
   H        2.52486        -2.98932         0.11622
   H        8.40756        -1.88385         1.20894
   H        9.19153        -0.62864        -4.89992
   H       13.35831        -0.64336        -2.06048
   H       14.13697         0.61947        -8.17109
   H       19.16418        -0.18924        -9.40525
   H       20.75908         2.21917        -6.77783
   H        3.11291        -4.15996        -1.69802
   H        3.93380        -4.00123        -3.26701
   H        2.25988        -1.71569        -2.16176
   H        1.88664        -1.16524        -4.53061
   H        2.74635        -2.60946        -5.04950
   H        1.19409        -4.15372        -3.71458
   H        0.27644        -2.65971        -3.43995
   H        0.75125        -3.67570        -2.05552
   H        4.07861        -0.29064        -3.48894
   H        4.12051        -0.47588        -5.25725
   H        4.91521        -1.67211        -4.21020
   H       12.47711        -0.30830         0.33875
   H       11.10299        -0.69098         1.37386
   H       11.10434         1.49512        -0.81084
   H       11.29444         1.78107         0.93202
   H        9.75659         1.14854         0.30090
   H       10.90814        -3.48286        -1.01726
   H       10.98209        -3.02372         0.68174
   H       13.30861        -2.92430        -1.34438
   H       13.12874        -3.99925         0.05391
   H       13.42850        -2.27390         0.30717
   H       11.45030        -0.51758        -8.33632
   H       10.08083        -0.93174        -7.30608
   H       12.81782        -2.36090        -7.30106
   H       11.27923        -3.00146        -7.92465
   H       11.48465        -2.73247        -6.18102
   H       11.56771         1.80501        -7.60973
   H       11.63301         2.23847        -5.90365
   H        9.12301         1.03899        -7.25683
   H        9.41339         2.76199        -6.97566
   H        9.23371         1.66380        -5.59517
   H       16.41096        -0.30562       -10.23600
   H       15.40526        -0.97550        -8.95719
   H       18.09821        -2.26824        -9.48416
   H       16.94472        -4.33529        -8.92578
   H       15.38458        -3.51629        -8.85896
   H       17.73098        -2.93567        -6.92752
   H       16.33279        -3.97817        -6.56779
   H       16.09823        -2.24563        -6.81552
   H       15.62542        -2.69398       -11.26299
   H       17.10121        -3.68843       -11.29686
   H       17.17263        -1.97639       -11.77059
*
