# ORCA input file
# PC70BM.out: Geometry 69
! B3LYP def2-TZVP def2/J RIJCOSX Grid4 TightSCF

%maxcore 6000
%tddft
  maxdim 5
  nroots 50
  end
%pal
  nprocs 6
  end


* xyz 0 1
   C       -0.00609         0.05574        -0.02337
   C        1.34055        -0.29587         0.12915
   C        2.36969         0.72461         0.00334
   C        3.40104         0.44512         0.99146
   C       -0.37360         1.43249        -0.29626
   C        2.00937         2.04837        -0.27246
   C       -1.00687        -0.47936         0.88027
   C        1.73260        -1.20512         1.19320
   C        3.00434        -0.74569         1.72888
   C        0.76049        -1.72305         2.05923
   C        4.02784         1.50115         1.65983
   C        0.61055         2.40767        -0.41891
   C        2.65614         3.14166         0.43164
   C        3.25039        -0.82629         3.10370
   C        3.64446         2.87349         1.37549
   C        4.27296         1.41491         3.08874
   C       -1.60137         1.73258         0.41931
   C       -0.63240        -1.34943         1.89891
   C       -1.99463         0.55442         1.14187
   C        0.40585         3.71886         0.17242
   C        1.66573         4.17210         0.69382
   C        3.67308         3.62506         2.61592
   C        4.05753         2.72546         3.67057
   C        3.89000         0.27812         3.79476
   C       -1.86397         3.03482         0.92909
   C       -0.81870         4.06318         0.80899
   C        1.72995         4.98269         1.86265
   C        2.76614         4.69352         2.85574
   C        3.54609         2.87497         4.98778
   C        3.28593         0.41193         5.10794
   C       -2.76817         3.11000         2.02288
   C       -2.66121         0.64753         2.39390
   C       -0.75292         5.08636         1.79780
   C        0.50417         5.54588         2.31860
   C        2.49148         4.99698         4.21964
   C        2.87659         4.09893         5.27221
   C        3.15014         1.68172         5.73495
   C       -2.73807         4.22226         2.95822
   C       -3.16436         1.93213         2.74510
   C       -1.74038         5.18959         2.85340
   C        0.30721         5.94566         3.70202
   C        1.30121         5.69928         4.63216
   C        1.93266         4.22808         6.35317
   C        2.11374         1.80899         6.70122
   C        1.01783        -1.79333         3.48594
   C        2.23428        -1.35386         3.99739
   C       -1.23191        -1.21571         3.21695
   C        2.26525        -0.59090         5.23314
   C       -2.26449        -0.27194         3.47247
   C       -3.12460         3.73666         4.25824
   C       -3.37536         2.31200         4.12946
   C       -1.10713         5.73443         4.04022
   C        1.02327         5.36543         6.05355
   C        1.53404         3.09667         7.04061
   C        1.09381         0.80524         6.82381
   C       -0.21361        -1.48681         4.19459
   C        1.08460        -0.34852         5.98842
   C       -2.40279         0.16166         4.82191
   C       -2.48371         4.23909         5.40027
   C       -3.00193         1.44272         5.14895
   C       -1.48763         5.28088         5.29858
   C       -0.53158         5.13243         6.43482
   C        0.12325         2.87940         7.38645
   C       -0.13277         1.46003         7.23352
   C       -0.20185        -0.81996         5.45237
   C       -1.38265        -0.10688         5.79829
   C       -2.09342         3.33243         6.46158
   C       -2.36093         1.95967         6.34484
   C       -0.85137         3.80118         7.02621
   C       -1.35329         1.00584         6.73500
   C        0.29591         6.21776         7.06738
   C        0.70247         6.03753         8.50569
   C       -0.24185         5.73799         9.49435
   C        0.14433         5.64136        10.83430
   C        1.47941         5.83681        11.19585
   C        2.42860         6.13092        10.21299
   C        2.04022         6.23178         8.87632
   C       -0.04268         7.66368         6.69622
   C       -1.44160         8.06315         7.16601
   C       -1.84097         9.47671         6.75617
   C       -3.31499         9.74764         6.97801
   O       -4.12468         8.94289         7.37116
   O       -3.62873        11.01630         6.65612
   C       -5.00367        11.37773         6.78413
   H       -1.28326         5.57112         9.21179
   H       -0.60103         5.40574        11.59695
   H        1.78432         5.75436        12.24193
   H        3.47438         6.28316        10.49028
   H        2.78212         6.45721         8.10685
   H        0.03625         7.80149         5.60745
   H        0.72148         8.31598         7.14853
   H       -2.17821         7.36089         6.74870
   H       -1.51861         7.96128         8.26025
   H       -1.26270        10.24603         7.29373
   H       -1.63485         9.65564         5.68588
   H       -5.32382        11.33362         7.83623
   H       -5.08895        12.40282         6.40322
   H       -5.64272        10.69967         6.20026
*
