# ORCA input file
# BTP-PhC6.out: Geometry 105
! B3LYP/G D3BJ Opt RIJCOSX def2-SVP def2/J
* xyz 0 1
   C        4.03663         0.81598        -1.71050
   O        5.25173         0.90721        -1.64461
   C        3.18565         1.30838        -2.82462
   C        3.59338         1.92701        -4.00119
   C        2.60901         2.28570        -4.91584
   F        2.92696         2.86643        -6.06909
   C        1.25382         2.03270        -4.64089
   F        0.34623         2.39941        -5.54408
   C        0.84804         1.41175        -3.46234
   C        1.83301         1.04008        -2.53636
   C        1.74733         0.37184        -1.21246
   C        0.56515        -0.01568        -0.60364
   C        0.48239        -0.61516         0.69216
   N        0.35062        -1.08909         1.74553
   C       -0.71515         0.15090        -1.21937
   N       -1.76025         0.26193        -1.71593
   C        3.11602         0.22456        -0.71260
   C        3.49487        -0.42506         0.44626
   C        4.74094        -0.73101         1.04383
   S        6.37025        -0.20103         0.53652
   C        7.09212        -1.13599         1.80825
   C        6.12166        -1.80718         2.58711
   C        4.80267        -1.58968         2.17314
   C        3.65712        -2.28386         2.80494
   S        6.79694        -2.94011         3.75727
   C        8.38354        -2.53285         3.16915
   C        8.39268        -1.56511         2.15815
   N        9.69696        -1.33322         1.71434
   C       10.00874         0.11270         1.42708
   C       11.19428         0.58859         2.27351
   C       10.51191        -2.28654         2.37224
   C        9.71069        -2.98090         3.33035
   C       10.22552        -4.03714         4.14238
   N        9.56860        -4.72150         5.06879
   S       10.61802        -5.86409         5.64724
   N       11.93781        -5.49512         4.71638
   C       11.58677        -4.47891         3.93984
   C       12.34328        -3.89534         2.87561
   C       11.81969        -2.81670         2.07878
   N       12.66796        -2.65274         0.98529
   C       12.53758        -1.84484        -0.22246
   C       13.42962        -0.57770        -0.33292
   C       13.64943        -3.62443         1.05201
   C       13.49535        -4.37849         2.22502
   S       14.54771        -5.77000         2.30756
   C       15.14711        -5.37710         0.68838
   C       14.58750        -4.19221         0.16103
   S       15.19836        -3.81800        -1.41522
   C       16.12341        -5.33131        -1.43235
   C       16.03150        -6.03009        -0.19157
   C       16.67257        -7.32996         0.06655
   C       16.66382        -5.92598        -2.59082
   C       16.82294        -5.48268        -3.89033
   C       17.28330        -6.29634        -5.01128
   C       17.48437        -7.66701        -5.06025
   C       17.93938        -8.34258        -6.23532
   N       18.31433        -8.92497        -7.16897
   C       17.21116        -8.56491        -3.98180
   N       16.99724        -9.33433        -3.13703
   C       17.44634        -5.38723        -6.16985
   C       17.89043        -5.62280        -7.47393
   C       17.92724        -4.54772        -8.35294
   F       18.35205        -4.73148        -9.59675
   C       17.52339        -3.25830        -7.97132
   F       17.59096        -2.28559        -8.87598
   C       17.07114        -3.01484        -6.67867
   C       17.04564        -4.08949        -5.79603
   C       16.62786        -4.09419        -4.37048
   O       16.20450        -3.13478        -3.74525
   C       14.82338        -0.68809         0.30996
   C       14.87687        -0.58439         1.83292
   C       13.53378        -0.20581        -1.82658
   C       13.88496         1.26086        -2.06860
   C       10.83421         0.72236         3.75406
   C       10.02704         0.47790        -0.06369
   C        9.72516         1.95798        -0.29648
   C       15.91857        -8.39503         0.59424
   C       16.47288        -9.66634         0.71174
   C       17.79602        -9.92338         0.32327
   C       18.55986        -8.84888        -0.15482
   C       18.01430        -7.57448        -0.28109
   C        3.29677        -1.98342         4.12886
   C        2.26219        -2.67764         4.75072
   C        1.56924        -3.70040         4.08409
   C        1.93378        -3.99311         2.76382
   C        2.96247        -3.29771         2.12943
   C        0.51102        -4.49969         4.80352
   C        1.12352        -5.52051         5.77099
   C       18.34817       -11.32633         0.32946
   C       18.17715       -12.01969        -1.03188
   H        4.64669         2.12391        -4.20735
   H       -0.21531         1.23594        -3.31789
   H        2.68109        -0.84248         1.04038
   H        9.13092         0.64024         1.83058
   H       11.53528         1.55949         1.88235
   H       12.04105        -0.10117         2.15473
   H       11.48237        -1.57982        -0.34200
   H       12.77632        -2.51661        -1.06139
   H       12.90682         0.25064         0.17011
   H       16.98925        -6.94700        -2.39788
   H       18.21500        -6.59361        -7.84121
   H       16.74902        -2.01818        -6.37281
   H       15.45015         0.11536        -0.10818
   H       15.31311        -1.61415        -0.02206
   H       14.54947         0.40870         2.18023
   H       15.90698        -0.73610         2.19100
   H       14.24957        -1.33201         2.33484
   H       12.56919        -0.41328        -2.32377
   H       14.26829        -0.86848        -2.31664
   H       13.11453         1.92036        -1.63604
   H       13.94542         1.48356        -3.14508
   H       14.85027         1.54356        -1.62143
   H       10.02884         1.46001         3.90148
   H       11.69941         1.05062         4.34912
   H       10.48486        -0.23496         4.17136
   H        9.26661        -0.13756        -0.57113
   H       10.98920         0.23194        -0.52897
   H        8.72693         2.22757         0.08464
   H        9.74522         2.19572        -1.37037
   H       10.46223         2.61016         0.19675
   H       14.87389        -8.23570         0.86623
   H       15.85580       -10.48594         1.08860
   H       19.59501        -9.02144        -0.46064
   H       18.63164        -6.75730        -0.65834
   H        3.82965        -1.19495         4.66473
   H        1.97968        -2.41646         5.77404
   H        1.40199        -4.77955         2.22220
   H        3.23981        -3.54646         1.10279
   H       -0.12368        -5.01956         4.06793
   H       -0.14990        -3.81280         5.35940
   H        1.77476        -6.22788         5.23246
   H        0.34272        -6.09983         6.28896
   H        1.74026        -5.02081         6.53550
   H       17.84286       -11.91549         1.11140
   H       19.41879       -11.30181         0.59370
   H       17.11230       -12.13024        -1.28891
   H       18.64050       -13.01832        -1.02551
   H       18.63840       -11.42527        -1.83403
*
