# ORCA input file
# SCF done       -191.205133589212          0.000962965493
! B3LYP/G D3BJ Opt RIJCOSX def2-SVP def2/J
* xyz 0 1
   C        4.26621         0.50096         0.84590
   O        4.01263         1.10439         1.86897
   C        5.27765         0.88221        -0.16589
   C        6.06584         2.01517        -0.20129
   C        6.96650         2.13882        -1.24710
   F        7.74817         3.22284        -1.32385
   C        7.06817         1.14382        -2.21997
   F        7.95090         1.28728        -3.21481
   C        6.27931         0.00351        -2.18164
   C        5.37396        -0.12514        -1.14010
   C        4.41293        -1.17932        -0.81958
   C        4.14015        -2.27416        -1.59715
   C        3.12784        -3.22114        -1.33193
   N        2.30831        -4.01405        -1.19675
   C        4.82202        -2.58278        -2.79309
   N        5.34701        -2.88915        -3.76633
   C        3.74473        -0.80471         0.40978
   C        2.93176        -1.62848         1.14792
   C        2.11144        -1.33236         2.25105
   S        1.88607        -2.69888         3.35984
   C        0.88936        -1.74620         4.38753
   C        0.69399        -0.46741         3.84487
   C        1.36597        -0.21877         2.64281
   C        1.15346         1.05133         1.89315
   C        0.70562         0.83672         0.44889
   S       -0.35538         0.54195         4.81766
   C       -0.50017        -0.75130         5.95411
   C        0.21490        -1.90055         5.60093
   N        0.03239        -2.87319         6.54510
   C        0.58407        -4.18410         6.29264
   C        2.07394        -4.24613         6.63101
   C       -0.78259        -2.36337         7.54034
   C       -1.14880        -1.03458         7.16179
   C       -2.05139        -0.24925         7.91115
   N       -2.49059         0.97418         7.65968
   S       -3.54316         1.38708         8.81796
   N       -3.47668         0.02145         9.68450
   C       -2.62685        -0.80576         9.09601
   C       -2.21507        -2.09071         9.51103
   C       -1.27133        -2.87414         8.77720
   N       -1.01484        -4.01762         9.51288
   C       -0.09856        -5.12051         9.34170
   C       -0.80625        -6.36183         8.79772
   C       -1.77752        -3.97846        10.64691
   C       -2.53485        -2.80319        10.67276
   S       -3.50980        -2.63297        12.08845
   C       -2.87460        -4.15239        12.68314
   C       -1.97106        -4.75349        11.79327
   S       -1.41791        -6.26723        12.39711
   C       -2.34443        -6.04248        13.88293
   C       -3.09471        -4.87021        13.86549
   C       -4.14522        -4.48805        14.85746
   C       -3.89860        -3.10977        15.47083
   C       -2.29091        -7.10096        14.81525
   C       -2.31946        -6.98741        16.17961
   C       -2.47619        -8.06456        17.13099
   C       -2.91250        -9.33470        16.85622
   C       -3.06537       -10.34532        17.82803
   N       -3.19972       -11.20365        18.57798
   C       -3.28675        -9.78807        15.57358
   N       -3.62410       -10.21093        14.56071
   C       -2.17089        -7.53072        18.45738
   C       -2.15743        -8.13408        19.70528
   C       -1.82565        -7.35244        20.80198
   F       -1.80558        -7.91465        22.01534
   C       -1.50959        -5.99978        20.67002
   F       -1.19713        -5.28343        21.75641
   C       -1.51507        -5.39141        19.42512
   C       -1.85153        -6.16800        18.33426
   C       -1.91505        -5.76641        16.91059
   O       -1.57527        -4.69983        16.44818
   H        5.98737         2.78067         0.55427
   H        6.40029        -0.73955        -2.95285
   H        2.96130        -2.68444         0.89952
   H        2.08465         1.62571         1.90866
   H        0.39547         1.62957         2.42621
   H        1.46829         0.32498        -0.13204
   H        0.50671         1.79776        -0.01816
   H       -0.20551         0.24268         0.41805
   H        0.46273        -4.38348         5.22232
   H        0.01176        -4.93407         6.83041
   H        2.26876        -3.89944         7.64397
   H        2.63772        -3.61545         5.94904
   H        2.43345        -5.26612         6.53043
   H        0.30729        -5.35683        10.33094
   H        0.73226        -4.81621         8.71290
   H       -1.51667        -6.73622         9.52996
   H       -0.07932        -7.14309         8.59513
   H       -1.35323        -6.14111         7.88312
   H       -4.20316        -5.24111        15.64388
   H       -5.10486        -4.47263        14.33028
   H       -4.66449        -2.89749        16.21223
   H       -3.93125        -2.33811        14.70653
   H       -2.92548        -3.08465        15.95218
   H       -2.16011        -8.08747        14.38506
   H       -2.38630        -9.17598        19.85827
   H       -1.26772        -4.34723        19.31865
*
