104
 SCF done       -197.728047023996          0.000831941371
C           3.73262892283095    3.59256319418053   -2.29416226253233
O           4.94847420096320    3.52347951187951   -2.34215838306486
C           2.87665660366954    4.42101376856701   -3.16986598542943
C           3.25810080954760    5.26534814461957   -4.19277209497701
C           2.25765318494331    5.93587605121998   -4.87816245601352
F           2.58094143909921    6.76457402026143   -5.87909628796246
C           0.91810816258314    5.75492729778531   -4.53556511510463
F          -0.02749597177957    6.41470673638255   -5.21424612595698
C           0.53611865650970    4.90593385471854   -3.50670233867527
C           1.53037425631122    4.23099578584795   -2.81685739021897
C           1.46584869441696    3.27883302909170   -1.70558011905578
C           0.30825786042802    2.84809984170545   -1.10800433590827
C           0.22066789955701    1.93026847133851   -0.04086329636123
N           0.05892276258101    1.18858901233717    0.82195962781406
C          -0.98293148627260    3.27101092625085   -1.48867028954926
N          -2.06103658796283    3.56904073414543   -1.74616181192039
C           2.82406948538042    2.89234310142086   -1.38880546271337
C           3.18507097401228    2.00353964671000   -0.39976805748666
C           4.43418234432115    1.52604144458540   -0.00604829743962
S           5.97451621763999    1.98067370250927   -0.74282981107725
C           6.81375275123848    0.92694073589044    0.33053549333273
C           5.93613112332157    0.26453334237750    1.21070566394350
C           4.60116187875853    0.59107927434514    1.03525971704478
C           3.51258353980047    0.04314293046761    1.89838444991267
C           3.17439195936068    1.01741425946934    3.03054773189190
S           6.74353302236636   -0.83835867029637    2.30898131494083
C           8.25155470325153   -0.41033466449300    1.57700168717918
C           8.13706596375979    0.54372575549772    0.55699808631193
N           9.37368366025314    0.83397369896399    0.03945169001759
C           9.44149711371543    1.36930408467643   -1.30492761620435
C           9.55023717134964    0.24616563506695   -2.33378387282005
C          10.30048432693259    0.05172505947396    0.71571399612487
C           9.60421354268852   -0.75513857116764    1.66572299580734
C          10.27694961316250   -1.75052206091982    2.40358751231387
N           9.86269844821324   -2.64829983500522    3.29928383724556
N          10.93780600432371   -3.34351056505118    3.57380388842798
C          10.90530283163867   -4.45767664028616    4.47624232714287
C          10.50738626966722   -5.73302533443657    3.73898119842467
N          12.03458871766283   -2.99930053653495    2.94630857795816
C          11.66074167747665   -1.97357548694311    2.17955759271422
C          12.37390524274641   -1.10875554379545    1.32487902658353
C          11.71436190718700   -0.04014791539376    0.64677546207355
N          12.67559682759427    0.73447334977041    0.01984571476969
C          12.60259951522878    2.08951496477912   -0.47822497772245
C          12.79388464872438    2.15916410738209   -1.99234425788253
C          13.89639964084961    0.16189736364158    0.25766915077988
C          13.73888298136594   -0.98665664804976    1.04442401329094
S          15.22574824198155   -1.78137950844462    1.41997719509341
C          16.09467998306240   -0.54180479522053    0.54023794923904
C          15.23972793115014    0.42493236299601   -0.01799292977874
S          16.12867032623584    1.63229357813702   -0.86208847290872
C          17.65320799031782    0.87458430380007   -0.39115153718276
C          17.45766894203983   -0.30951317502675    0.32352960128544
C          18.54952127913640   -1.25664725777921    0.68567497092576
C          18.19852176677239   -2.71680865898050    0.41313349107629
C          18.82108270306452    1.50138051056193   -0.85451230692223
C          20.06029823403381    1.50696803074830   -0.26061014763967
C          21.28373837526511    1.98005692835155   -0.86912656545605
C          21.49136093046299    2.21593045795239   -2.20361080112997
C          22.71287048589672    2.66656646862377   -2.74554138755441
N          23.67976212984918    3.03831949224532   -3.23961955030010
C          20.52639770360737    2.01141211995055   -3.21250576472192
N          19.79898143288102    1.84283133921345   -4.08509465067583
C          22.29662108460286    2.06845975778038    0.18171635385844
C          23.62230186530520    2.47072164705123    0.14433463788471
C          24.34712435079684    2.43125675885701    1.32634255034278
F          25.62883339944509    2.81523442275192    1.31340403850416
C          23.77321640158517    2.00452392112802    2.52384927849056
F          24.51156021901018    1.97867958253744    3.64049439661032
C          22.44639819837891    1.60700731927979    2.56958964619773
C          21.72653935800053    1.64171502597604    1.39236681276009
C          20.30521593508821    1.28199555513504    1.17624831070572
O          19.50503986121882    0.97366359060819    2.03472221467388
H           4.29524434397580    5.40181728452271   -4.45414394838869
H          -0.51275238591988    4.80222522574111   -3.28305470250295
H           2.36939629091621    1.59006594083614    0.17714294792818
H           3.86093904214856   -0.89708684647972    2.33043637334250
H           2.61287009516192   -0.16082776896360    1.31610713059401
H           4.05158131752420    1.20085196061620    3.64664151934956
H           2.39046061513470    0.59743305386548    3.65393227566669
H           2.82505160374101    1.96669632842440    2.63153288452368
H          10.27001814577966    2.06254006010673   -1.41345604165296
H           8.51638453803275    1.92787755076943   -1.46645218424937
H          10.45031011706518   -0.34262359078432   -2.16694055317018
H           9.58071342390362    0.66410551108299   -3.33612278320849
H           8.68997851540173   -0.41525377898276   -2.26134296019949
H          10.17937677685222   -4.22802231004602    5.25861532374850
H          11.90409474467517   -4.55809050983875    4.90469147821221
H           9.52094472140408   -5.61649764824148    3.29695878143761
H          10.48516466405282   -6.56861455659438    4.43240310104765
H          11.22426908916486   -5.94982669646243    2.95076545253263
H          13.40634468180032    2.66067582980657    0.00041889785933
H          11.65731544927823    2.52997416431804   -0.15923837855420
H          13.80242574797882    1.85009177655172   -2.25368573798682
H          12.65179363491990    3.18057768428916   -2.33417558872459
H          12.09566376916736    1.51085630044540   -2.51390623772454
H          18.78183336155363   -1.12434949356762    1.74727145851737
H          19.44694429647516   -0.98818437309649    0.12349975798746
H          17.41472613856807   -3.06716740111087    1.07814381316693
H          19.07875425726125   -3.33482780194404    0.57063077243042
H          17.86713277167808   -2.84479784947905   -0.61504611591365
H          18.69538510601099    2.08802796965222   -1.75764805984234
H          24.10881755983657    2.81370806774557   -0.75396893386394
H          21.99861492376130    1.28000577513159    3.49437281331681
