# ORCA input file
# Y14.out: Geometry 140
! B3LYP/G D3BJ Opt RIJCOSX def2-SVP def2/J
* xyz 0 1
   C        0.13505        -2.83480        -0.95675
   O       -0.42317        -3.91192        -1.08804
   C        1.38129        -2.41540        -1.65405
   C        2.15317        -3.16198        -2.53405
   C        3.29111        -2.54299        -3.05166
   C        3.63920        -1.23153        -2.71438
   C        2.84903        -0.49546        -1.82704
   C        1.70605        -1.09651        -1.27850
   C        0.69852        -0.61797        -0.29982
   C        0.70721         0.64040         0.28238
   C        1.64058         1.66166        -0.07630
   N        2.37626         2.51546        -0.36058
   C       -0.23059         1.06863         1.27270
   N       -0.96621         1.46443         2.08230
   C       -0.26771        -1.69994        -0.09677
   C       -1.37274        -1.65609         0.73575
   C       -2.44639        -2.53052         1.01487
   S       -2.75403        -4.10899         0.23960
   C       -4.22269        -4.28340         1.13600
   C       -4.44466        -3.19879         2.01160
   C       -3.46250        -2.19988         1.95636
   C       -3.51955        -0.97777         2.83333
   C       -3.25775        -1.31299         4.31036
   S       -5.92535        -3.35975         2.96534
   C       -6.23886        -4.88393         2.17120
   C       -5.25908        -5.23738         1.23263
   N       -5.60864        -6.42064         0.60679
   C       -4.99900        -6.74998        -0.67841
   C       -5.90401        -6.56219        -1.90862
   C       -6.82711        -6.84786         1.15332
   C       -7.23740        -5.87502         2.12729
   C       -8.51681        -5.97741         2.74112
   N       -9.13388        -5.18195         3.62658
   N      -10.32419        -5.75348         3.77315
   C      -11.36914        -5.12418         4.56839
   C      -12.28410        -4.25414         3.71195
   N      -10.55700        -6.84313         3.04990
   C       -9.40818        -7.02014         2.37711
   C       -8.98804        -8.03530         1.46718
   C       -7.67494        -7.97625         0.88457
   N       -7.49580        -9.12795         0.10360
   C       -6.25720        -9.77802        -0.31578
   C       -5.35808       -10.31281         0.81341
   C       -8.66488        -9.86203         0.16525
   C       -9.59500        -9.21876         0.99387
   S      -11.08889       -10.10879         1.17155
   C      -10.45370       -11.36621         0.10289
   C       -9.15883       -11.07344        -0.36991
   S       -8.62450       -12.26509        -1.49953
   C      -10.13425       -13.18303        -1.30863
   C      -11.01477       -12.56349        -0.40050
   C      -12.42265       -12.99169        -0.08780
   C      -12.66362       -13.27717         1.40327
   C      -10.30469       -14.28124        -2.20258
   C      -11.06961       -15.42351        -2.17569
   C      -11.75424       -16.17138        -1.13296
   C      -11.41170       -16.19236         0.20700
   C      -12.13095       -16.96268         1.17121
   N      -12.72312       -17.55732         1.97547
   C      -10.24819       -15.52482         0.69818
   N       -9.29567       -14.99930         1.10809
   C      -12.70051       -17.10137        -1.79621
   C      -13.70338       -17.94436        -1.29716
   C      -14.40154       -18.76603        -2.18822
   C      -14.08756       -18.76232        -3.55336
   C      -13.09529       -17.93190        -4.07609
   C      -12.42906       -17.10517        -3.18149
   C      -11.36528       -16.10480        -3.48386
   O      -10.86847       -15.87180        -4.56555
   F      -14.76139       -19.57435        -4.37442
   F        4.07957        -3.21949        -3.89140
   C       -6.05948       -11.34365         1.72911
   C       -6.81656       -10.75161         2.92021
   C       -4.09901       -10.90191         0.16272
   C       -6.40281        -5.11069        -2.10424
   C       -7.63598        -4.69779        -1.29780
   C       -5.12055        -7.02977        -3.14088
   H        1.88132        -4.18173        -2.80875
   H        4.53540        -0.79593        -3.15889
   H        3.14602         0.52025        -1.57670
   H       -1.46963        -0.73814         1.30917
   H       -4.52846        -0.53995         2.73474
   H       -2.81771        -0.20030         2.50603
   H       -3.96563        -2.06726         4.68459
   H       -3.36321        -0.40982         4.92948
   H       -2.24113        -1.71339         4.44834
   H       -4.58127        -7.76339        -0.64481
   H       -4.13022        -6.08715        -0.78611
   H       -6.78962        -7.21064        -1.78718
   H      -10.84984        -4.52932         5.33142
   H      -11.92702        -5.93048         5.06522
   H      -11.69690        -3.48774         3.18422
   H      -13.02902        -3.74776         4.34475
   H      -12.81488        -4.86542         2.96677
   H       -5.69089        -9.10894        -0.96716
   H       -6.55436       -10.61943        -0.95646
   H       -5.04824        -9.45189         1.43365
   H      -12.69407       -13.86485        -0.69322
   H      -13.09524       -12.17656        -0.41035
   H      -13.69175       -13.63144         1.57076
   H      -12.51219       -12.37272         2.01109
   H      -11.97355       -14.03756         1.78740
   H       -9.77111       -14.17648        -3.15807
   H      -13.95765       -17.97156        -0.23824
   H      -15.19415       -19.42721        -1.83315
   H      -12.84738       -17.92933        -5.13898
   H       -5.28958       -12.02921         2.12220
   H       -6.73622       -11.98007         1.12917
   H       -6.12954       -10.20908         3.59025
   H       -7.29725       -11.54854         3.50860
   H       -7.60512       -10.05022         2.61931
   H       -4.35046       -11.76666        -0.47345
   H       -3.38711       -11.24691         0.92707
   H       -3.58020       -10.16245        -0.46972
   H       -6.64598        -4.99057        -3.17395
   H       -5.56819        -4.41321        -1.91120
   H       -8.44773        -5.43526        -1.41317
   H       -8.01879        -3.72984        -1.65739
   H       -7.43494        -4.58925        -0.22439
   H       -4.25774        -6.36938        -3.32618
   H       -5.75486        -7.01056        -4.03929
   H       -4.73205        -8.05494        -3.02421
*
