104
 SCF done       -197.029009994538          0.000474829934
C           6.50141339095208    4.48916175721164   -0.64483263482528
O           7.34190841132983    3.61026799213117   -0.72694156571957
C           6.58672410460915    5.83314625531997   -1.25163655861924
C           7.59479839377998    6.36711580177883   -2.02648204836158
C           7.44682629104998    7.66802099693410   -2.49246687066573
Cl          8.67743897306204    8.37010887000566   -3.46338929791815
C           6.30051340091469    8.40325564195244   -2.17548800819520
Cl          6.12728121635281   10.00882456595100   -2.76123096066518
C           5.28699056533223    7.85948124507332   -1.39250738756408
C           5.43103596156628    6.56373908683997   -0.92616369134628
C           4.56078723892772    5.72534110558699   -0.10084160204464
C           3.35152789268488    6.11736757497674    0.41645035038392
C           2.49938797204309    5.32841785795911    1.21619710847331
N           1.74951464090777    4.75455717937119    1.87147760715723
C           2.78334162504396    7.39353476054038    0.21881930578723
N           2.26075577152781    8.40863766193304    0.09918105472462
C           5.22003374835971    4.44614317325669    0.05894262389074
C           4.70724376277149    3.37140875332876    0.74998692746402
C           5.22390750853957    2.09634689720656    0.98058730197704
S           6.80203570865737    1.52420947444964    0.43081860598775
C           6.51312632844117   -0.01075300306470    1.15804217621854
C           5.25219500008502   -0.06772104120235    1.78174565771352
C           4.52252008596865    1.10753599086064    1.69769909543919
C           3.14274467950224    1.24576040589518    2.25239491771249
C           2.09232991232634    0.98786909676438    1.16827830073485
S           4.90023035993471   -1.62101104923863    2.51481633403587
C           6.44476504154157   -2.18620683766809    1.97794430398869
C           7.19184721242037   -1.22480584035319    1.28506909482663
N           8.39840833932258   -1.75095100925782    0.89959814260556
C           9.08283250591809   -1.13450295999830   -0.21822528076322
C           8.65037401925317   -1.76842944462978   -1.53845404249832
C           8.43175436295419   -3.07166189703174    1.32720899242974
C           7.19914191822215   -3.36400522448975    1.98565087140244
C           6.89642662179825   -4.67248321047015    2.41391714226837
N           5.82720413422858   -5.20603506024252    3.00725319938384
N           6.11118840572982   -6.48186539115309    3.08690249901725
C           5.18113889119537   -7.42800068015319    3.63144770860051
C           4.20997195685768   -7.90431823070762    2.55523286607073
N           7.26831040730209   -6.85645412114698    2.60117987855073
C           7.81468759422833   -5.72351119668867    2.15637018841475
C           9.07248786741709   -5.42415781074191    1.59519896111644
C           9.42251018130541   -4.08425496260221    1.25022985098047
N          10.75594228728654   -4.06707193680380    0.87639509704181
C          11.69007335380142   -2.96588833714990    0.80253336799064
C          12.18828552523583   -2.72396590456576   -0.62115050312996
C          11.22681976928296   -5.35115869204174    0.94303265206646
C          10.20549012134223   -6.21208225376715    1.36768465121386
S          10.69121877327088   -7.86532632971371    1.50312844453652
C          12.30553274785057   -7.40237708731973    1.01185003123115
C          12.43200646589829   -6.02963264585050    0.74797161053625
S          14.03167434583680   -5.65976443242229    0.23580652484454
C          14.53424118382098   -7.35043360555169    0.43913704059604
C          13.46577565712924   -8.16122942986493    0.83282068797787
C          13.42937427476815   -9.64566984801205    0.95278378959968
C          13.90855507910299  -10.36722471101062   -0.30503889598313
C          15.87051923981053   -7.58807104862794    0.07838045055482
C          16.73724509423395   -8.58075085813208    0.46845331423834
C          18.01058000847667   -8.86479155244896   -0.16073364649945
C          18.47121635839646   -8.36030804643983   -1.35012676906901
C          19.72345560687844   -8.68367248427232   -1.91309405695109
N          20.73046062350154   -8.89688528064702   -2.42111088295597
C          17.76205264905030   -7.47575524410478   -2.18973982283738
N          17.24120855755666   -6.77792687378419   -2.93895466053388
C          18.69058292641068   -9.87100442329371    0.65230397856581
C          19.91613577069594  -10.49829632447410    0.50246937489851
C          20.29699532413282  -11.44914776919430    1.44346634704143
Cl         21.81388341565949  -12.23580140053092    1.26416915667371
C          19.47091614860900  -11.77098595052100    2.52499745129283
Cl         19.97088257125518  -12.95302972514440    3.66625147884879
C          18.24351203844880  -11.13817518231688    2.68135186679731
C          17.86715922459470  -10.20182520936139    1.74161770223679
C          16.62922484381165   -9.39365608025621    1.68999385110227
O          15.76626253649780   -9.34665831275863    2.54478317907593
H           8.47340063010487    5.78838230160117   -2.26347288257659
H           4.41886616788366    8.45790730211472   -1.17092932160895
H           3.73207149159709    3.52172405674766    1.19212464639203
H           2.98725226350453    2.23804230937670    2.67818850565893
H           3.02024868122550    0.50880218936419    3.04861440011894
H           2.19058536100994    1.70585764945401    0.35749275365690
H           1.09663037315709    1.08165020754978    1.59184138759831
H           2.20705774275599   -0.01411933269248    0.76130868692555
H          10.16070580423493   -1.19617224891226   -0.10443331111789
H           8.80636654601104   -0.07735235767128   -0.21019829095899
H           8.88590572408698   -2.83102468232876   -1.55034366616652
H           9.15936659931958   -1.28295908845417   -2.36642294990847
H           7.57788269188853   -1.65347398116905   -1.67733463247871
H           4.64011176681519   -6.93193059722289    4.43960197620414
H           5.76120101621646   -8.26548253895686    4.02299507749356
H           3.65528967772268   -7.05998636842900    2.15343754165517
H           3.50799355098923   -8.61602198195483    2.97976737049924
H           4.75360612617973   -8.38680140249194    1.74661615729989
H          12.54997127325884   -3.22042095478672    1.43281476412890
H          11.22266966969702   -2.08007204934237    1.23415759420480
H          12.77740685846218   -3.57287762371927   -0.95774970758094
H          12.82058322335004   -1.84074174891671   -0.64382497674644
H          11.36425032820749   -2.58738628156417   -1.31545057271989
H          12.39887992927735   -9.93739052080537    1.16785229790031
H          14.04731978169092   -9.94363788782714    1.80527425375962
H          13.31572814183916  -10.06380358657327   -1.16544149405771
H          13.80220694454739  -11.44077291225345   -0.17329047325869
H          14.95259509034770  -10.15003919802927   -0.51405717144771
H          16.27528013409098   -6.83486202490466   -0.58936702631939
H          20.58158421578624  -10.27245436169767   -0.31443869630258
H          17.59852726205043  -11.37515847387566    3.51263382520712
