# ORCA input file
# Y16_new_geom_for_DFT.xyz
! B3LYP/G D3BJ Opt RIJCOSX def2-SVP def2/J
* xyz 0 1
   C       -3.68324         2.26000        -6.56518
   O       -4.41192         2.94969        -5.88284
   C       -2.87920         2.79769        -7.63883
   C       -2.92434         4.06705        -8.19423
   C       -2.00742         4.35860        -9.19812
   C       -1.08890         3.38374        -9.61050
   C       -1.08225         2.10517        -9.03010
   C       -1.98824         1.81009        -8.01664
   C       -2.23016         0.58401        -7.21319
   C       -1.41385        -0.63504        -7.29940
   C       -1.90192        -1.92295        -6.95843
   N       -2.26514        -2.97938        -6.64281
   C       -0.04296        -0.56356        -7.67615
   N        1.06805        -0.50736        -8.00339
   C       -3.31192         0.81404        -6.40943
   C       -3.92056        -0.09202        -5.44366
   C       -5.14859        -0.16232        -4.89122
   S       -6.48074         0.97376        -5.15985
   C       -7.21505         0.43602        -3.71828
   C       -6.66852        -0.83460        -3.27707
   C       -5.56086        -1.20823        -3.92721
   C       -4.86741        -2.53161        -3.77091
   C       -5.20420        -3.47878        -4.91744
   S       -7.67167        -1.63056        -2.08312
   C       -8.78173        -0.27062        -2.16267
   C       -8.40949         0.71383        -3.04317
   N       -9.36050         1.70606        -3.08556
   C       -9.37965         2.76074        -4.08169
   C       -8.38160         3.87618        -3.80929
   C      -10.39197         1.34134        -2.20048
   C      -10.02817         0.08375        -1.71683
   C      -10.95839        -0.65935        -0.95756
   N      -10.76735        -1.86566        -0.42918
   N      -11.99570        -2.09848         0.10796
   C      -12.29350        -3.33835         0.79509
   C      -12.98104        -4.33619        -0.11804
   N      -12.95673        -1.15381        -0.06510
   C      -12.26369        -0.24676        -0.74738
   C      -12.60382         1.01595        -1.26412
   C      -11.62049         1.88299        -1.86899
   N      -12.17356         3.21343        -2.09456
   C      -11.42438         4.46482        -2.00695
   C      -11.66507         5.34392        -3.22879
   C      -13.53988         3.16037        -1.73680
   C      -13.84278         1.79060        -1.30609
   S      -15.45918         1.45487        -0.87776
   C      -15.78809         3.10326        -1.22569
   C      -14.62893         3.90822        -1.54801
   S      -15.00809         5.59341        -1.56040
   C      -16.67887         5.27301        -0.97726
   C      -16.99492         3.85408        -1.09370
   C      -18.32603         3.23239        -1.35952
   C      -19.45568         4.18331        -1.72915
   C      -17.29241         6.22362        -0.06993
   C      -17.81150         5.92142         1.25385
   C      -18.87029         6.53692         2.09562
   C      -19.70672         7.54059         1.73468
   C      -20.74057         8.03520         2.58039
   N      -21.58764         8.44290         3.26117
   C      -19.64450         8.16945         0.45778
   N      -19.60104         8.68760        -0.57955
   C      -18.90677         5.76734         3.38086
   C      -19.64808         5.87704         4.55131
   C      -19.46853         4.93269         5.57771
   C      -18.55267         3.88071         5.44726
   C      -17.77947         3.77604         4.29872
   C      -17.96992         4.72776         3.30615
   C      -17.20840         4.80584         2.06283
   O      -16.23871         4.12306         1.80822
   H       -3.64659         4.80141        -7.85171
   H       -1.99963         5.34279        -9.66144
   H       -0.36859         3.62261       -10.39177
   H       -0.35612         1.38886        -9.39982
   H       -3.22787        -0.85119        -5.09522
   H       -5.16248        -3.01486        -2.83220
   H       -3.78351        -2.39874        -3.69494
   H       -6.27454        -3.71163        -4.93565
   H       -4.65782        -4.42044        -4.80308
   H       -4.94184        -3.05085        -5.88975
   H      -10.39531         3.14140        -4.14924
   H       -9.18215         2.30178        -5.05637
   H       -8.55634         4.71326        -4.49208
   H       -7.35198         3.54071        -3.95672
   H       -8.44208         4.24744        -2.78329
   H      -12.92923        -3.09404         1.65323
   H      -11.35165        -3.74565         1.17752
   H      -13.92850        -3.93715        -0.49623
   H      -13.19291        -5.26423         0.42111
   H      -12.35253        -4.57535        -0.98235
   H      -10.35958         4.25700        -1.90278
   H      -11.69621         5.01596        -1.09772
   H      -10.83699         6.04723        -3.36107
   H      -12.57415         5.93862        -3.11779
   H      -11.77666         4.76355        -4.14923
   H      -18.62793         2.63567        -0.49138
   H      -18.21540         2.53016        -2.19755
   H      -19.76037         4.79204        -0.87346
   H      -20.33093         3.60899        -2.05167
   H      -19.17244         4.84797        -2.55191
   H      -17.27731         7.25595        -0.40443
   H      -20.37002         6.66584         4.72794
   H      -20.05339         5.01811         6.49268
   H      -18.43842         3.15372         6.24843
   H      -17.04984         2.98040         4.17567
*
