97
 SCF done       -174.316141594534          0.000642563526
C           0.44489458642597   -1.20242171953888   -0.98087368953696
O           0.96551556290249   -0.67030113863936   -1.93528772505489
C           1.06014143525510   -1.55095879976451    0.31780457484076
C           2.37346199914311   -1.41644001943022    0.72305803684845
C           2.71406658545508   -1.84495080611338    1.99884677951129
C           1.75657087521991   -2.39662287420911    2.83802378634341
C           0.43224375744491   -2.52561514542566    2.43988306473215
C           0.08210800353033   -2.09612939595803    1.17093848228095
C          -1.20901375412430   -2.05022519890725    0.48814149033571
C          -2.43577655219575   -2.04340010464538    1.10043996731181
C          -3.61372289347243   -1.64747083391120    0.43333653837651
N          -4.57576700515269   -1.27389682052486   -0.06983709373562
C          -2.64038689277126   -2.33728444010470    2.46167374390088
N          -2.86401394709135   -2.60261891398043    3.55635101493902
C          -0.95080546549933   -1.70423876304951   -0.89056536997231
C          -1.69245507531561   -1.85788290314430   -2.02367433914765
C          -2.81696965555630   -2.67698376836348   -2.25071089583991
S          -3.17324586345779   -4.06734875574570   -1.22288414481285
C          -4.53284102151444   -4.47149777496646   -2.20051754444569
C          -4.67545863395165   -3.57809113559899   -3.27110927971341
C          -3.70467083889306   -2.57443537257151   -3.31685881198552
C          -3.70578257101049   -1.46701989701808   -4.31507870364535
C          -4.35439978556208   -0.21564638448404   -3.71752165847437
S          -6.04408656427592   -3.94438044323168   -4.29639572236389
C          -6.42230876164112   -5.28339499044498   -3.27227741366324
C          -5.53970825845235   -5.43773506842310   -2.19562548701481
N          -5.92920600754147   -6.49595509845250   -1.41446834782113
C          -4.94021836981218   -7.17004266471211   -0.60098702408470
C          -3.82669860338381   -7.76220059743983   -1.46505450603900
C          -7.08273501534959   -7.01849737133777   -1.97302749126022
C          -7.38256100649752   -6.30148068654715   -3.16527198253044
C          -8.43339506421389   -6.70129732870336   -4.02099555215353
N          -8.79445186496661   -6.18170684747847   -5.18327502347867
S         -10.01135046717452   -7.06321494685700   -5.78491842735090
N         -10.12990770876262   -8.13980524315522   -4.58201178020171
C          -9.22011592546909   -7.84896371060236   -3.66611504797712
C          -9.01535871436618   -8.45419790903260   -2.40536815715198
C          -7.99694246231859   -8.00182014234070   -1.51869579733281
N          -8.16805686421004   -8.62346867232682   -0.29793941736324
C          -7.63112705873729   -8.29199756476021    1.00342550793963
C          -6.75693301587962   -9.41319301954860    1.56508031245531
C          -9.24351243976329   -9.46391088675019   -0.40380031247138
C          -9.77011932607101   -9.40159499134036   -1.69947192556318
S         -11.16948715378831  -10.38858825381068   -1.92944076267947
C         -11.07960004535516  -10.87305862984123   -0.25088266846449
C         -10.00746344819102  -10.28441614397937    0.43252316363369
S         -10.03395156873862  -10.70411884127729    2.10029522016989
C         -11.45210045032675  -11.72000594215597    1.85564317533253
C         -11.89478373499942  -11.69632121716910    0.53887509203236
C         -13.16316472745939  -12.29942099859676    0.02130534313581
C         -12.93100323956147  -13.22818565658158   -1.17129487950224
C         -12.00575036825720  -12.29468957866548    3.02613140852236
C         -12.72799296983267  -13.43480526256878    3.20016778311360
C         -12.91687732847250  -14.61015059139913    2.38082779858258
C         -12.02092164678052  -15.10456144719105    1.46993104233728
C         -12.19706933985145  -16.31601665010499    0.77191871560858
N         -12.30063392469524  -17.28596037044967    0.16684627516806
C         -10.78629562130295  -14.48488958325806    1.19077589399115
N          -9.75800080493759  -14.03264731830171    0.95412695625257
C         -14.08203131546849  -15.32157379928968    2.90339243682411
C         -14.79098203446677  -16.40302538828002    2.40782124379340
C         -15.85821622544040  -16.88895182138667    3.15225233386521
C         -16.21260895702036  -16.31954597840268    4.36700475025286
C         -15.51139093150654  -15.23168571994181    4.86898452852705
C         -14.45435026285966  -14.73894137095946    4.12921291178070
C         -13.57152702850091  -13.58965463102352    4.41753579040144
O         -13.55566444742752  -12.88841026165103    5.40302475163196
H           3.10466936937548   -0.98595416141273    0.05631454786227
H           3.73325544746331   -1.74994437113685    2.34206191622459
H           2.04356031779646   -2.73210219766253    3.82339214774159
H          -0.29570072719571   -2.96119158598564    3.10576850893387
H          -1.30593563471524   -1.33883519847967   -2.89606936064121
H          -4.27184710824497   -1.78785001301591   -5.19172351804111
H          -2.68456663353058   -1.23548803232382   -4.62456782470050
H          -5.37771422732790   -0.42809084813352   -3.41908490408624
H          -4.36293494233293    0.58650961674240   -4.45060118949266
H          -3.80570412301013    0.11490746914858   -2.83888973662988
H          -5.41114248298946   -7.97415991855822   -0.04807937895915
H          -4.52025629358843   -6.44219603307843    0.10056781954871
H          -3.11806280666948   -8.28991303782423   -0.83282719846701
H          -3.29353063560353   -6.98371354513573   -2.00385916902301
H          -4.24250055636999   -8.46298501757875   -2.18620922455089
H          -8.47862013023879   -8.14117939024713    1.68189985533476
H          -7.09168315100026   -7.34671593704208    0.93627602549414
H          -7.36162329799487  -10.29128722621875    1.77366222699566
H          -6.29402185156859   -9.08653333289140    2.49182610576083
H          -5.97658276738396   -9.70615565065438    0.86597564662384
H         -13.81145802191347  -11.47930918274002   -0.30387368350275
H         -13.67867230847019  -12.83106463440453    0.82154153233851
H         -12.20597339225794  -14.00308249321394   -0.93654648738094
H         -12.55688976350695  -12.66666591337507   -2.02293022254067
H         -13.86621435951030  -13.70410106319520   -1.45562429600605
H         -11.87712117862374  -11.70510244427099    3.93076651396931
H         -14.53700891454868  -16.85639723960797    1.46295231284012
H         -16.42213308534485  -17.72848593517010    2.77436780724478
H         -17.04299766496015  -16.72569918384161    4.92461705153607
H         -15.77390085461918  -14.77343889375827    5.81002323970950
