# ORCA input file
# ZY-4Cl.out
! B3LYP/G D3BJ Opt RIJCOSX def2-SVP def2/J
* xyz 0 1
  C      3.666690    2.591622    0.365085
  O      4.575690    2.460954   -0.437681
  C      2.346130    3.254767    0.092463
  C      1.866235    3.795623   -1.093235
  C      0.583333    4.358380   -1.092821
  Cl    -0.041907    5.019413   -2.568765
  C     -0.193705    4.387993    0.090518
  Cl    -1.773695    5.102674    0.091730
  C      0.301593    3.836971    1.278479
  C      1.568300    3.269186    1.259617
  C      2.313236    2.582138    2.360913
  O      1.930791    2.416563    3.504005
  C      3.606390    2.146919    1.769546
  C      4.471943    1.392858    2.512657
  C      5.752815    0.836275    2.280042
  S      6.762986    1.122846    0.842070
  C      8.032586    0.150638    1.521284
  C      7.666580   -0.381581    2.777838
  C      6.389011   -0.004545    3.219771
  C      5.762055   -0.547156    4.474885
  C      4.992966   -1.851379    4.203413
  S      8.902165   -1.409528    3.505066
  C      9.918631   -1.108402    2.123108
  C      9.331666   -0.281830    1.152952
  N     10.219943   -0.101121    0.099968
  C     10.096720    1.085066   -0.752135
  C     10.243186    2.397215    0.016970
  C     11.378904   -0.834677    0.389008
  C     11.208685   -1.449204    1.669195
  C     12.249075   -2.217794    2.280878
  N     12.205544   -2.835035    3.453054
  S     13.687974   -3.543666    3.675176
  N     14.415482   -3.060873    2.266882
  C     13.520921   -2.345631    1.598765
  C     13.662200   -1.792708    0.286253
  C     12.584729   -1.101407   -0.357632
  N     12.950584   -0.882444   -1.688753
  C     12.113132   -0.539709   -2.836995
  C     12.434037    0.830082   -3.436972
  C     14.225286   -1.395224   -1.874904
  C     14.688474   -1.939991   -0.666829
  S     16.243482   -2.717185   -0.795464
  C     16.249822   -2.349246   -2.522997
  C     15.112422   -1.633635   -2.954680
  S     15.169036   -1.306964   -4.657761
  C     16.712139   -2.188083   -4.795949
  C     17.152765   -2.678647   -3.546464
  C     18.432751   -3.425858   -3.295023
  C     19.592242   -2.490223   -2.923208
  C     17.397973   -2.444640   -6.009690
  C     17.172806   -2.094718   -7.315206
  C     18.033002   -2.647040   -8.395348
  O     18.989622   -3.386640   -8.268034
  C     17.452904   -2.142142   -9.682863
  C     17.830151   -2.417068  -10.991083
  C     17.106223   -1.812847  -12.027543
  Cl    17.538263   -2.159650  -13.670970
  C     16.033841   -0.934669  -11.743345
  Cl    15.159629   -0.179210  -13.036523
  C     15.661033   -0.669097  -10.419350
  C     16.374761   -1.290562   -9.401908
  C     16.149962   -1.223709   -7.920398
  O     15.272560   -0.579040   -7.369098
  H      2.462779    3.779309   -2.006722
  H     -0.298249    3.850481    2.189878
  H      4.074691    1.172564    3.510191
  H      5.091120    0.195183    4.931690
  H      6.560720   -0.733171    5.211171
  H      4.157916   -1.675040    3.508125
  H      4.581830   -2.269983    5.135248
  H      5.653764   -2.605292    3.748005
  H      9.118985    1.038469   -1.259135
  H     10.857618    1.027765   -1.529426
  H     11.219896    2.447152    0.523023
  H      9.454601    2.518138    0.774196
  H     10.168672    3.243777   -0.683701
  H     11.064573   -0.622300   -2.524299
  H     12.266237   -1.321290   -3.599159
  H     11.709620    1.076372   -4.227477
  H     13.436815    0.842768   -3.888911
  H     12.404255    1.624652   -2.675793
  H     18.704421   -4.034773   -4.170139
  H     18.255242   -4.137645   -2.471830
  H     19.835104   -1.812459   -3.755980
  H     20.494539   -3.070231   -2.674646
  H     19.331546   -1.870056   -2.051550
  H     18.284233   -3.082186   -5.895811
  H     18.663456   -3.085348  -11.213438
  H     14.827491   -0.000620  -10.200051
*
