100
 SCF done       -193.270992836301          0.000591129145
C           7.43303953562755    2.33363498363807    3.47495294472352
O           8.20398363259169    1.43822219881834    3.17681238944663
C           7.58424175719879    3.26756345535127    4.61064637591288
C           8.59572024995244    3.32227324415976    5.54829593392150
C           8.50931796170320    4.29680341713708    6.52961632874244
F           9.46730411301043    4.38677589500073    7.46031782184235
C           7.43361719198351    5.18415498562570    6.55665805901275
F           7.37535134237002    6.11523046355096    7.51522115209740
C           6.41752846163085    5.12807362061482    5.61355534845927
C           6.49611369462983    4.15604511351950    4.62903468535747
C           5.60498873147005    3.83188535719773    3.51288869666678
C           4.43112849116773    4.48290571117317    3.23064109063635
C           3.55324466537496    4.18041181136094    2.16882106115265
N           2.78637781332454    3.99791429668380    1.33255348031917
C           3.92629869317706    5.56511803706452    3.98270533663827
N           3.45870399815666    6.44699479954272    4.54917889617924
C           6.18910777276481    2.71115280177988    2.80609223396679
C           5.65030092925164    2.10929582715533    1.69123041890272
C           6.07598511251018    1.01112362217608    0.94364619059538
S           7.51565214843604    0.04692306484063    1.28482258245885
C           7.14715996662626   -0.99206206522383   -0.03869859024384
C           5.97394092517728   -0.59686947002115   -0.70989961641028
C           5.36385901608064    0.52522704714053   -0.17066057995616
C           4.13979028107082    1.14298141651801   -0.76180977929717
C           4.51382198242373    2.29849288502142   -1.69490524817098
S           5.54953170915550   -1.63491388422349   -2.05922011201811
C           6.94159931004183   -2.59492781935182   -1.71137818953972
C           7.69776050358820   -2.13272956545697   -0.62799664571405
N           8.76385359246328   -2.96469885684483   -0.41726459305727
C           9.61102852066655   -2.72951321454184    0.72905450632874
C          10.64748452693089   -1.64045090267380    0.45405307289854
C           8.72330292165124   -3.96495353598268   -1.36746347023625
C           7.56230990920741   -3.76066721364093   -2.17487322253329
C           7.12605805127490   -4.64480064562075   -3.19528704946997
N           6.02012842231479   -4.38695140524736   -3.90224926360822
C           5.67209814128007   -5.28352597027096   -4.79976425630242
C           6.41215228809868   -6.45333629381222   -5.01071282205463
N           7.50686204940596   -6.72130647762869   -4.33204475586029
C           7.88012627748655   -5.81944385886816   -3.41734968711360
C           9.06888510484220   -5.99569993837073   -2.66289802494209
C           9.54585359867782   -5.08037275772723   -1.67674496543234
N          10.78205039559834   -5.52288143707537   -1.24592443840054
C          11.75607684399428   -4.99615336348745   -0.31859334954808
C          11.68399597742497   -5.70473785916506    1.03421123932425
C          11.06663271883758   -6.69048458206214   -1.89888386144961
C          10.02192396535698   -7.01633967464090   -2.77159398764553
S          10.26810985188455   -8.48228220363900   -3.64709488170670
C          11.81423152654629   -8.66540427135519   -2.84800977840735
C          12.10376450321037   -7.62202082671530   -1.95423592445056
S          13.64837770311983   -7.83410942556784   -1.22218056526444
C          13.88315077242264   -9.35081159896425   -2.09417036537120
C          12.81190837280907   -9.63601982272981   -2.94059585634542
C          12.68724854060972  -10.87546558855971   -3.75891749288136
C          12.26713795500195  -12.05475214318648   -2.87714474899446
C          15.07797879425696  -10.08412357156988   -2.00043778738410
C          16.08047427913391  -10.00428050651206   -1.07461635361033
C          16.13514914303053   -9.41985557154304    0.24358266877515
C          15.09554480385426   -9.33649022061072    1.13408846207515
C          15.20258942507799   -8.78114230650032    2.42331720421139
N          15.22693417613189   -8.30236988806644    3.46647744515282
C          13.82163412109545   -9.88167663716844    0.86927708497130
N          12.79284595914633  -10.36523877215878    0.70907954341644
C          17.54690844746083   -9.21734475629537    0.56791517969510
C          18.15375434927698   -8.55975151527566    1.62467557914295
C          19.53952462054231   -8.57233649703710    1.68599773315069
F          20.14977451332430   -7.93019425705577    2.68857038452968
C          20.30852704019019   -9.23328419176256    0.72768106065460
F          21.64310560451792   -9.22459858156750    0.83045492383095
C          19.70670482642818   -9.89554936574808   -0.33087781936214
C          18.32805845424967   -9.87359407670661   -0.40022903195405
C          17.44237654331264  -10.46600244015961   -1.43180995026463
O          17.76234157667600  -11.13637584645678   -2.38601164991917
H           9.42530405099129    2.63393438635644    5.52370336665874
H           5.60909390250293    5.83721056324969    5.68034306175943
H           4.73225720953039    2.54486879246003    1.32194752709523
H           3.46658941963133    1.50862937263967    0.01481098628116
H           3.61556204481879    0.37708900983516   -1.33648033678501
H           5.04262592460130    3.07790949247216   -1.15131518667073
H           3.61417963942320    2.72878610126021   -2.12500723780188
H           5.15149976618466    1.94254384422051   -2.50067545654839
H          10.07213552427876   -3.66240378939092    1.04155977502559
H           8.96314942334132   -2.39073076235025    1.54400673770569
H          11.22159176480198   -1.85238664710815   -0.44611641723257
H          11.32710978363390   -1.55848656421966    1.29728576859755
H          10.15243765101581   -0.68230111611093    0.32135656296062
H           4.77833463495210   -5.06899694702817   -5.36881203924427
H           6.11366312315189   -7.18690953659992   -5.74652583437401
H          11.63152700103867   -3.92155542224770   -0.22149616526236
H          12.74422327842833   -5.17609884328957   -0.75561395949042
H          10.68524883441974   -5.64631189299970    1.46203709104910
H          12.39083683724855   -5.25588388966942    1.72616681448267
H          11.93593040456905   -6.75633185977781    0.92144776611026
H          13.63724139526875  -11.10524747567087   -4.24562734104380
H          11.93200876352427  -10.70962043090975   -4.52932917683805
H          13.00713021499312  -12.23377475008624   -2.10082846415979
H          12.16567236392444  -12.95263339890916   -3.48059757887259
H          11.31393571849561  -11.84615383508177   -2.39828272598657
H          15.28762674706521  -10.74620348134454   -2.83549967185957
H          17.59863587072225   -8.03602355804277    2.38599526098153
H          20.30056950714336  -10.40801574367349   -1.07078152652946
