186
 SCF done       -301.695851886846          0.000436781092
C           4.45678296353571    2.13484138535550    1.73940214239893
C           4.31418629065967    0.81164620585355    2.22016852037112
C           4.23834334919741    0.55243943111697    3.56806227423437
C           4.31644692997888    1.64182807571596    4.43135229135058
C           4.45715202862737    2.96560763840708    3.95255299739219
C           4.53400762657794    3.22441582268972    2.60397730307989
C           4.48429188681033    2.06089552849163    0.31179233281307
C           4.33885780278756    0.74753780974203   -0.11243089417347
C           4.25475149249043   -0.18228846255985    1.07112613878132
S           4.65682399826777    3.15840181135811   -0.99504843929321
C           4.51442760698313    1.83614642425488   -2.13380077619243
C           4.35479937074006    0.61605048253694   -1.49418159078802
C           4.28913428670172    1.70977944276012    5.85808435419658
C           4.42779565489585    3.02104262608484    6.28887634142867
C           4.51680340529882    3.95513304149830    5.10704150999908
S           4.12906510431206    0.59983855892682    7.15488965999641
C           4.25570501109854    1.91480932736421    8.30235739129485
C           4.40641554931576    3.14153701717524    7.67276353721866
C           4.57036875207492    2.08446627685603   -3.53930010218485
C           2.95622772705711   -0.95734254531887    1.16436087788929
C           5.46341511149578   -1.09910460919248    1.00646001872973
C           5.81977825645019    4.72404540231778    5.01937553392714
C           3.31446267617318    4.87954769394469    5.17180609613959
C           4.19903670659438    1.64228282282338    9.70449182543391
C           4.89662561985650    3.37286385354808   -4.04033649285829
C           4.95159675098371    3.64124652041054   -5.45207833210183
C           4.66640417635194    2.62022939343646   -6.39368304188346
C           4.40740849933774    1.36166758342270   -5.86457735053510
C           4.34151382237531    1.10409927082804   -4.49976083885388
C           3.97394202413500    0.32009934192904   10.17281309793153
C           3.93689384227073    0.01644058380014   11.57492735736276
C           4.14598698416999    1.03342920378125   12.53956372675528
C           4.29645277419199    2.32177573812609   12.04734992151622
C           4.33843616391818    2.61627966380644   10.68712078378592
N           5.22212463456774    4.44079181051225   -3.31716220262910
S           5.58707992924131    5.65387900766936   -4.30795883147405
N           5.34453851002240    4.89077250782114   -5.70017882224253
N           3.74024569690715   -0.75418031545909    9.42408038630983
S           3.47897616174901   -2.01322239299041   10.38946713411783
N           3.63937701716364   -1.26232151061718   11.79748428173835
C           4.72778575196837    2.82441471602878   -7.81467574495198
C           4.43523748731520    3.93612261553574   -8.52494792486645
C           4.14771044725447    0.74488067768986   13.94928145790375
C           4.66251909443818   -0.36558742540529   14.52346243990581
C           3.81267292764242    5.19904195284524   -8.16435465319693
C           3.97543893433247    6.05324475063907   -9.27986180666243
C           4.58840674079126    5.42996197336960  -10.37901324624467
C           4.84680762581599    4.02332390523879   -9.96846041089466
C           4.47772642771374   -0.78032846806409   15.90702217647080
C           5.12396424619842   -2.02806597570838   16.04541443064808
C           5.77121785521255   -2.45004966679200   14.87429088122112
C           5.57030660619069   -1.36883507860721   13.86804138225243
C           3.07749411563230    5.68116977123550   -7.09956475235297
C           2.62079747220642    7.00789789904444   -7.11905112115779
C           2.84976591415171    7.86157309273425   -8.18628039971553
C           3.52404851240243    7.36714388112915   -9.31710696040335
C           3.74754381128374    8.10302852416520  -10.49418161437077
C           4.37355326165273    7.49602434613556  -11.57118767690220
C           4.78654692685588    6.15399694827830  -11.53384367802192
C           2.39724510208403    9.25770972031965   -8.20904277614063
N           2.68147627632497    9.97361472442552   -9.37046082314634
C           3.29354121557464    9.50521588160074  -10.52824568217551
C           2.27548066834915   11.37466041550412   -9.36118833163599
C           3.23760576122438   12.25352117106175   -8.55106129683819
C           4.66269837052024   12.14570770732610   -9.08719707356006
C           2.75091120007238   13.69872565793762   -8.60413704527030
C           6.43366727496319   -3.65733552719638   14.87977271710022
C           6.42922825342778   -4.42789633428501   16.05483125761851
C           5.78683897900674   -4.00870965398264   17.20882968752501
C           5.11406781619791   -2.77429561344117   17.21723344554545
C           4.42641669200513   -2.24701455527152   18.32511664952674
C           3.79606112924890   -1.01849776646327   18.19964636927163
C           3.80879315240507   -0.28025981765996   17.00564709718378
C           4.40108395599901   -3.03653943646838   19.56398710607212
N           5.08837705824612   -4.25023672374498   19.52445060502900
C           5.76684457313188   -4.80741669147385   18.44711934673247
C           5.07900157547113   -5.05223479409765   20.74349932973379
C           6.40482521961807   -4.97825592709712   21.51129728923639
C           6.73446390751486   -3.53951973647130   21.89908904836150
C           6.30441464157664   -5.86142418703173   22.75177855560453
C           6.63458826058930   -0.81133966815403    1.69232117824412
C           7.73743823019210   -1.63700231123884    1.57080562887834
C           7.70487145676653   -2.76005378050646    0.75595989088759
C           6.53444585975713   -3.03588420824728    0.06052644238187
C           5.42972499024232   -2.21493994199615    0.17875413264733
C           2.87893328995288   -2.09193740392122    1.96262699280114
C           1.68842174088779   -2.78218267319023    2.08874477080690
C           0.54504975256113   -2.36068644079100    1.42282673373940
C           0.62445679912668   -1.21996811037807    0.63538337116816
C           1.81200003898033   -0.52299049948801    0.50989557298824
C           6.95840959198055    4.28805872558760    5.68206203855586
C           8.14855728167291    4.98234667667796    5.56348528642339
C           8.23554669659098    6.12214511573525    4.77599096247417
C           7.09768754930269    6.54480108860595    4.10085001985206
C           5.90528458039754    5.85696165312153    4.21917857643079
C           2.14100041472512    4.59970511081658    4.48661330238492
C           1.04323008860544    5.43211064236975    4.60949132349417
C           1.08328926018798    6.55447530318115    5.42493457299123
C           2.25655804443058    6.82336396114842    6.11837528451607
C           3.35599153268017    5.99563012801127    5.99898267895437
O           1.80827816004280    9.78530017133631   -7.28741068902525
O           3.43767884139983   10.21984119880289  -11.49852567852662
O           5.30832544871646    3.12660778866880  -10.63529208782290
O           6.12619994566753   -1.26768021497740   12.79885151943763
O           3.81609752033778   -2.68014951969913   20.56583536668886
O           6.29743789996022   -5.89492660362152   18.54272245104423
C          -0.75761781711132   -3.08935948053474    1.58694366472046
C           8.88795414616144   -3.68048017731461    0.67035696046093
C          -1.58960990640738   -2.45446665989330    2.70288270594962
C           8.81836999150155   -4.73893259444670    1.77309618205517
C           9.53873237847923    6.85147744311161    4.61871331035658
C          10.33806925825795    6.27365694421008    3.44908178463874
C          -0.09540607467889    7.48017363509126    5.51645285211649
C          -0.02088031101986    8.54901581569290    4.42412600043301
H           4.12791034667172   -0.44877240404667    3.95429218203720
H           4.64492785881403    4.22582751385195    2.21803585362569
H           4.26321663367127   -0.31916775820444   -2.01482060886389
H           4.49537441645762    4.07229448331674    8.20207935595702
H           4.21412005744238    0.55003117136952   -6.55104377157842
H           4.10155654279610    0.10280120641196   -4.17945635961388
H           4.43414600388764    3.12900348933493   12.75272917883838
H           4.49577141135966    3.64143921246806   10.39095370289203
H           5.08382558680131    1.97863202190929   -8.39551278366914
H           3.68037651389523    1.48625576835524   14.58866605412619
H           2.82962484036995    5.05677674094106   -6.25601524826473
H           2.06663885647391    7.39200783691924   -6.27469897550764
H           4.52786836103838    8.08175215056619  -12.46560795354008
H           5.24583812256891    5.70436435394930  -12.40087399354167
H           1.27576300349680   11.43001696679755   -8.92405582583853
H           2.24695257044644   11.70989470603079  -10.39917646874626
H           3.21891886231383   11.91179774632396   -7.51111268601043
H           4.68981115790527   12.39881154117129  -10.14476587235986
H           5.05153137822204   11.13584589601676   -8.96791093987737
H           5.31953624515980   12.82564887392401   -8.54936053344558
H           2.75690264710107   14.06241787143060   -9.62948965094070
H           3.39910848770875   14.33728887423446   -8.00902547703267
H           1.73909692906008   13.77782301704657   -8.21388602189690
H           6.94448088981581   -4.01628912105461   13.99939277950801
H           6.93762089511135   -5.38088210210434   16.07447860842220
H           3.27237626477951   -0.62916692505791   19.06067361372328
H           3.29228768638046    0.66705736861191   16.96854699708757
H           4.88308189749064   -6.08845619940392   20.45713677905346
H           4.26576142534743   -4.67875646571600   21.36798833456128
H           7.19774585500579   -5.36696005453595   20.86437382497416
H           5.91813947841304   -3.10523853113837   22.47204101982215
H           6.89718499654428   -2.92322819572727   21.01666166771701
H           7.63845010544109   -3.51010109693049   22.50318029482868
H           5.51531773539489   -5.50259641660369   23.40924431116405
H           7.24232796892938   -5.84856845526501   23.30133621156263
H           6.08378956897302   -6.88932658547583   22.47416363851380
H           6.68895279203479    0.06095292817136    2.32694706234738
H           8.63994395078063   -1.40029103057731    2.11629748393837
H           6.48899879028415   -3.90217456907518   -0.58431059975834
H           4.52679518099932   -2.44699298550230   -0.36783228298968
H           3.76041907695889   -2.44602022595751    2.47738255626911
H           1.64825555594719   -3.66515970065683    2.71077029241924
H          -0.25430954544508   -0.87286926357438    0.11026064148737
H           1.84835649313158    0.36357254092163   -0.10651935346400
H           6.91601740889242    3.40310751688182    6.30019825189099
H           9.02280182905494    4.63359361310986    6.09491051644630
H           7.14429829129188    7.42702285899568    3.47814490007485
H           5.02812283275881    6.21204528496181    3.69767053049599
H           2.08092097721589    3.72763399373120    3.85209130505083
H           0.13859675288692    5.20115158858008    4.06495366224886
H           2.30833378493568    7.68961270377646    6.76284651063371
H           4.26080436283251    6.22185294328751    6.54485109699961
H          -0.56847779897648   -4.13674718190420    1.83013599831023
H          -1.32233319625955   -3.05230196824587    0.65293740431974
H           9.81122603567971   -3.10778293963140    0.77940008549971
H           8.90485882648546   -4.17466963090643   -0.30304974480508
H          -1.05005160517977   -2.49462137730853    3.64643153221083
H          -2.53432762203692   -2.98038388156361    2.81940737475228
H          -1.79778683210600   -1.41181899855491    2.47347560401226
H           8.81212099967624   -4.26456821410991    2.75188549980003
H           9.67474430040328   -5.40668371133065    1.71559958182101
H           7.90988248566778   -5.32888144004636    1.67359418183420
H          10.12628318112556    6.76160756064724    5.53471950500742
H           9.35009529838164    7.91140796165523    4.43636830234032
H          10.54819553170268    5.21998957669677    3.61868517052456
H          11.28144093213229    6.80252278704192    3.33447409173535
H           9.77354547802899    6.36421198596579    2.52375711054606
H          -0.11101671732307    7.96544253942275    6.49442554391338
H          -1.02120923311263    6.91266837387279    5.40156080470680
H           0.88940944516341    9.13502547232893    4.53004203052281
H          -0.87509496365294    9.21905681565424    4.48754307913390
H          -0.01555879963516    8.08444403932794    3.44066155342924
