170
 SCF done       -270.826001238159          0.000546699562
C           3.98036807189396    1.07854032786935    2.97947974254021
C           5.26048662746233    0.55147978847038    2.68824514317634
C           6.39926678436480    1.27260353821707    2.96199798913580
C           6.23312669913973    2.53421512973100    3.52666683069963
C           4.95324301334585    3.05199404177339    3.83776760860921
C           3.81455873406084    2.33241735144320    3.56057536031598
C           3.02266754341211    0.10162080648249    2.56248232064692
C           3.65765000546072   -1.01932846774674    2.05929447144273
C           5.15138667751073   -0.83591313036485    2.07754473131712
S           1.29383879849387    0.01913545098907    2.51202206673003
C           1.41044261699269   -1.56111803047943    1.79042835752492
C           2.74355273167381   -1.97272414295034    1.61317583451774
C           7.18535359308067    3.54280474163382    3.87400724088456
C           6.54724641235807    4.66745281908202    4.36464716498650
C           5.06201676852751    4.43922579514136    4.44586748110869
S           8.91026532530678    3.68796856239642    3.79017407498122
C           8.77965451484407    5.30619371286043    4.42724829965770
C           7.44763246175906    5.68187373177463    4.68996632130351
C           5.88050452574148   -1.81685941436209    2.97501165142185
C           5.63003140903426   -0.92177500372234    0.63928364072380
C           4.23441286343315    5.41138480618983    3.63033618960883
C           4.69474353370480    4.49167694854077    5.92006380855818
C           0.47763409789859   -4.76401117690667    0.22760555218646
C          -0.79034830219601   -5.24851107023726    0.27098338679182
C           9.82112230865297    8.61128176811031    5.54086114315531
C           9.40250512128038    9.82854504605897    5.99272546800193
C          -1.96648002403635   -4.94323384391996    1.06823422114542
C          -3.02483323306835   -5.71360396639508    0.52492162117060
C          -2.62695547405578   -6.54297243293831   -0.53539371578937
C          -1.16770368326893   -6.32072456182030   -0.71046575739681
C          10.28309189664868   10.94887770207146    6.28622943754129
C           9.45410617804012   12.01855723540791    6.69014965347379
C           8.09141673180990   11.68624336348315    6.69075146110218
C           8.00943964698251   10.26529732332853    6.25185598449167
C          -2.24784744246809   -4.20785382418868    2.20451961481257
C          -3.55472378788826   -4.18647999330875    2.71544978106611
C          -4.59592803415195   -4.89434280727351    2.13759691538665
C          -4.32367159608506   -5.70318908845062    1.01963504890616
C          -5.27251542091170   -6.52701780733646    0.38857470742245
C          -4.88474487321393   -7.32792820736723   -0.67337479283908
C          -3.56015927477635   -7.35623764327506   -1.13883719320236
C          -5.97053875425895   -4.86515420087817    2.65282719266153
N          -6.89484335198780   -5.65632123892284    1.97347549693699
C          -6.65538592727885   -6.50797470159678    0.90065379829323
C          -8.26589312661004   -5.58765791021849    2.46761164834640
C          -8.98668132329612   -4.31185505197579    2.01318646347516
C          -9.01612081126293   -4.21078318011124    0.49060078353603
C         -10.40369488700826   -4.31635060984915    2.57906691356772
C           7.17379861427616   12.64549962479627    7.05700521735169
C           7.63741534885594   13.92255343658315    7.41668668365337
C           8.98481919328480   14.24599677656943    7.41500167436858
C           9.92958247109464   13.27393296262426    7.04312460074848
C          11.31946983242649   13.48551035799919    6.99626787547278
C          12.14201543656760   12.43978066046113    6.60591399691574
C          11.64424096191278   11.17637079886717    6.25034709962083
C          11.82931328675278   14.81357080656003    7.36049793928393
N          10.86667382659068   15.74828872504446    7.74599272328539
C           9.48835936362505   15.58029713092480    7.78899238896367
C          11.35199870321116   17.06688971097433    8.13931652688761
C          11.35132731556107   17.26273218234095    9.66079786086781
C          12.20542570915613   16.20235387514266   10.35017449680127
C          11.87060873236793   18.66198530648098    9.97826344160744
C           5.81647345555282    0.21019589245815   -0.14007578692412
C           6.19551814909418    0.09032824113796   -1.46529568089907
C           6.38198676382311   -1.15594788679895   -2.04676927401998
C           6.18086696632334   -2.28609907221033   -1.26391971458436
C           5.80692651401627   -2.17308547680266    0.06058041022457
C           7.24777142482059   -2.01462181764142    2.82137091432489
C           7.92810375238949   -2.87143156734287    3.66188508609260
C           7.27312044299614   -3.55734871495657    4.68133405828370
C           5.91013448762693   -3.35077192916189    4.83213111668907
C           5.22405701378313   -2.48766775403450    3.99433810429336
C           4.78657427791981    6.11027888843156    2.56688690332580
C           4.00799363169442    6.96937276692821    1.81353135617152
C           2.66047857557212    7.14538817907742    2.09615488377877
C           2.10914933277488    6.43088038129151    3.15176762296610
C           2.88376456292570    5.57507287844144    3.91069787640972
C           4.54509463642086    3.34406470504354    6.68588194024322
C           4.26620752027763    3.44168124007462    8.03559254357754
C           4.14077106131609    4.67694893301642    8.66373832965867
C           4.30459522598201    5.81915436254110    7.89240967206630
C           4.57879991212423    5.72825984430227    6.53985916204058
O          -6.31052351218952   -4.20313003397916    3.61187744157038
O          -7.53997985980972   -7.19018613538849    0.42681932585599
O          -0.42062503691209   -6.86840025424765   -1.48885898495422
O           6.99607782602414    9.60369409402149    6.13376884191318
O          13.00701048342551   15.10463067600018    7.32787369597570
O           8.76034915458261   16.49550750427720    8.11365198218512
C           8.07125569233057   -4.49241931316400    5.55154991021883
C           6.83535457897735   -1.28240214364527   -3.47246477934685
C           7.36499717305157   -4.97437989546672    6.81254151723745
C           8.36199125473988   -1.35767696165268   -3.54254585979441
C           1.80833848827004    8.04682478713718    1.25017405142441
C           1.22294957345585    7.27337469151948    0.06686530275923
C           3.84289376499685    4.70545981282871   10.14056449597419
C           3.66018190312499    6.09090715502558   10.74602722606238
C           0.46713408471461   -2.48804762639949    1.35530408495799
C           1.05598955704904   -3.62862817624019    0.84444578227575
S           2.81702700580025   -3.52972980753808    0.88680381071487
C           9.69668554551823    6.30181279282652    4.71559672933672
C           9.08817799856877    7.45904498729717    5.19590332266755
S           7.33997630546901    7.28962225259575    5.29468036809882
H           7.38408865695541    0.89133327821237    2.74063964600437
H           2.82977787399276    2.71647767995135    3.77738461761758
H           1.14841695420880   -5.32524431832912   -0.41728500537179
H          10.89276212033144    8.49693467440694    5.41006959212834
H          -1.47988540032435   -3.66456524564191    2.73156015508083
H          -3.76975336015173   -3.59772572609637    3.59542192809431
H          -5.63227022798581   -7.95504857388357   -1.13673744427773
H          -3.28438380342070   -8.01091770788972   -1.95127387153742
H          -8.22869095492135   -5.61559484665029    3.55914395567775
H          -8.78969332243623   -6.46737376885138    2.09043432948741
H          -8.44645484386387   -3.45080302026546    2.41971918186186
H          -9.48397839469977   -5.09395888934027    0.06126910557601
H          -8.01020879621892   -4.12571468276592    0.08311543413438
H          -9.58020241631923   -3.33336472071714    0.18267555943146
H         -10.96348992181805   -5.16459359567533    2.19099304754077
H         -10.92434217367244   -3.40388181600700    2.29951802197586
H         -10.38362638056397   -4.38103629956863    3.66421498150305
H           6.11612881163508   12.43029957569395    7.06924104414921
H           6.93181623501914   14.68818328033780    7.70519519728584
H          13.20691184893733   12.61898383070064    6.57678638301241
H          12.33863423200384   10.40468145850093    5.95353456660972
H          10.70205223996926   17.81300204498977    7.67613335580290
H          12.36703132654577   17.16540415296818    7.75129233952470
H          10.31925988548585   17.17953940422968   10.01627207574243
H          13.21693734106759   16.21226418920201    9.95042126235146
H          11.78997375030918   15.20704247335800   10.20214835523548
H          12.25169934280148   16.39321921110204   11.41976092698131
H          12.89672599982448   18.77221410239190    9.63355170743989
H          11.84714702043833   18.83891491755447   11.05069802124812
H          11.25841709015959   19.41812609201871    9.49253671150878
H           5.66631126463948    1.19146311207518    0.28612429971606
H           6.34151278977469    0.98259376834691   -2.05745458270729
H           6.31323331672379   -3.26673910842189   -1.69772590767833
H           5.65526823353314   -3.06296333425219    0.65449624996168
H           7.77863552345086   -1.50365211696366    2.03127241129355
H           8.99100876935275   -3.01483288419768    3.52636995637259
H           5.36254632799885   -3.86079580431205    5.60862953519556
H           4.16353961013847   -2.34136578320756    4.14140539504542
H           5.83263591043021    5.98845144563429    2.32565553216098
H           4.45664162604504    7.51444760088872    0.99521103626325
H           1.06106602322836    6.55059785004553    3.38698154896237
H           2.43991445161723    5.04093800943108    4.73846966645812
H           4.64472099383112    2.36951459981133    6.23028241878697
H           4.14672482083528    2.53814373296955    8.61736493818399
H           4.22453798343265    6.79829030817435    8.33587537004971
H           4.70135441992122    6.63183423622063    5.96071887780948
H           8.99890865157797   -3.98626282814137    5.83363951317746
H           8.35515501009190   -5.36081320814418    4.94791786589654
H           6.49052908319148   -0.42177193635726   -4.04901987364917
H           6.41037966007916   -2.18464142685623   -3.91679250110266
H           7.03480987528306   -4.13078602181800    7.41465136483618
H           8.04861758758267   -5.57365568938308    7.40987799278498
H           6.50370814717736   -5.59145699980668    6.56819720585126
H           8.80474889723344   -0.46112009502260   -3.11416891766711
H           8.69165884378089   -1.44904616179216   -4.57478557939649
H           8.72427598737279   -2.21814571622657   -2.98444768067174
H           2.40800883838866    8.87863225738000    0.87531276616507
H           0.99346901680551    8.45620199571200    1.85049175013139
H           2.02044949013275    6.86538772794875   -0.55028294810956
H           0.60695198343067    7.92591424062988   -0.54748425385359
H           0.60946471411155    6.44776716242542    0.42092234857956
H           4.65802109435908    4.19327886956930   10.66173574270703
H           2.93699323344415    4.11715177445258   10.31640389906808
H           4.56616462927881    6.68335630757775   10.64203455104409
H           3.43425798378674    6.00088622359245   11.80645260038702
H           2.83793560383323    6.61739943949704   10.26696106310764
H          -0.59144844270848   -2.31158023181026    1.34628679688647
H          10.75995246397745    6.21092019063466    4.58425288731771
