# ORCA input file
# PBDB-T-2Cl_dimer.out: Geometry 39
! B3LYP def2-TZVP def2/J RIJCOSX Grid4 TightSCF

%maxcore 6000
%tddft
  maxdim 5
  nroots 50
  end
%pal
  nprocs 6
  end


* xyz 0 1
   C        0.61532         1.58147         0.53681
   C        1.60790         0.59501         0.72374
   C        1.23212        -0.78026         0.79264
   C       -0.09140        -1.22850         0.66767
   C       -1.09359        -0.23742         0.51200
   C       -0.71093         1.13807         0.45888
   C        3.03549         0.76372         0.81751
   C        3.72017        -0.41068         0.93078
   S        2.65018        -1.80700         0.94585
   C       -2.51611        -0.39650         0.37048
   C       -3.18652         0.79338         0.20624
   S       -2.09053         2.17812         0.19462
   C        0.92767         3.00243         0.32526
   C       -0.36501        -2.66947         0.60599
   C        0.40325         4.10644         0.95673
   C        0.83049         5.32911         0.35446
   C        1.65709         5.17755        -0.73539
   S        1.94044         3.48339        -1.01907
   C        0.10868        -3.66737         1.42726
   C       -0.19637        -4.96976         0.93184
   C       -0.88249        -4.98875        -0.26070
   S       -1.18551        -3.35532        -0.78125
   C        2.27851         6.23247        -1.59908
   C        3.75029         6.52256        -1.27473
   C       -1.35533        -6.17068        -1.05008
   C       -2.82231        -6.54369        -0.79471
   C        5.19598        -0.61757         1.04391
   C       -4.60229         1.05176         0.05164
   C       -5.63868         0.21163        -0.32516
   C       -6.89557         0.85845        -0.41437
   C       -6.84765         2.21590        -0.11202
   S       -5.20408         2.66143         0.33748
   C       -7.83724         3.27778        -0.11738
   S       -7.18879         4.90747        -0.09327
   C       -8.75469         5.65761         0.03983
   C       -9.75279         4.68671         0.02595
   C       -9.23860         3.33338        -0.10225
   C      -11.19160         4.97426         0.25903
   C      -12.06743         3.79140         0.30474
   C      -11.58372         2.46254         0.02399
   C      -10.15253         2.17111        -0.21003
   C      -13.43029         3.84691         0.54553
   S      -14.11414         2.25335         0.40413
   C      -12.58960         1.51227         0.02432
   C       -8.77516         7.10682         0.11028
   C       -9.67520         8.02567        -0.39885
   C       -9.27656         9.37313        -0.18960
   S       -7.42402         7.93565         0.86852
   O      -11.63221         6.10980         0.40881
   O       -9.76653         1.03746        -0.48635
   C      -14.28044         5.03669         0.88341
   C      -15.74582         4.72227         1.18276
   C      -12.55279         0.05997        -0.34195
   C      -12.57509        -0.14583        -1.86309
   C       -8.08108         9.48125         0.48161
  Cl        0.33499         6.88575         0.95688
  Cl        0.27972        -6.41990         1.76770
   H        3.52683         1.73625         0.78975
   H       -3.01907        -1.36146         0.41923
   H       -0.26469         4.05709         1.81597
   H        0.65914        -3.48891         2.34977
   H        1.68263         7.14941        -1.47623
   H        2.18371         5.93378        -2.65693
   H        3.85970         6.86791        -0.23480
   H        4.14977         7.30423        -1.93907
   H        4.36949         5.62045        -1.40133
   H       -0.70538        -7.01985        -0.78840
   H       -1.19924        -5.97508        -2.12428
   H       -2.97833        -6.80697         0.26292
   H       -3.11901        -7.40566        -1.41186
   H       -3.49321        -5.70512        -1.03841
   H        5.72335         0.33858         0.91916
   H        5.56553        -1.31633         0.27641
   H        5.47261        -1.04068         2.02485
   H       -5.48261        -0.83967        -0.57023
   H       -7.82442         0.38050        -0.70878
   H      -10.59207         7.72487        -0.89681
   H       -9.85824        10.23257        -0.52399
   H      -14.19393         5.76082         0.05545
   H      -13.80805         5.55648         1.73327
   H      -16.25522         4.28330         0.30933
   H      -16.28916         5.63758         1.46017
   H      -15.84608         4.01086         2.01844
   H      -13.41148        -0.45366         0.11911
   H      -11.63534        -0.38110         0.07038
   H      -13.45287         0.33975        -2.31684
   H      -12.60810        -1.21774        -2.11337
   H      -11.67117         0.28445        -2.31666
   H       -7.55726        10.38537         0.78741
*
