# ORCA input file
# PBDB-TF_dimer.out: Geometry 91
! B3LYP def2-TZVP def2/J RIJCOSX Grid4 TightSCF

%maxcore 6000
%tddft
  maxdim 5
  nroots 50
  end
%pal
  nprocs 6
  end


* xyz 0 1
   C        0.86922         1.72300         0.27506
   C        1.74302         0.63608         0.53089
   C        1.21810        -0.68602         0.65827
   C       -0.14385        -0.99119         0.53888
   C       -1.01929         0.09712         0.30190
   C       -0.49920         1.42137         0.17628
   C        3.17830         0.64511         0.67719
   C        3.72334        -0.59101         0.86874
   S        2.50206        -1.85485         0.92039
   C       -2.44472         0.06999         0.17721
   C       -3.00647         1.30306        -0.04905
   S       -1.78947         2.57621        -0.14017
   C        1.35170         3.10030         0.10480
   C       -0.62267        -2.37524         0.63138
   C        0.84212         4.25435         0.65937
   C        1.53623         5.41151         0.21124
   C        2.56034         5.18576        -0.67501
   S        2.67557         3.47410        -0.98191
   C       -0.31299        -3.32612         1.57766
   C       -0.92246        -4.57897         1.29081
   C       -1.67981        -4.62341         0.14640
   S       -1.65127        -3.05592        -0.61388
   C        3.44324         6.20487        -1.33475
   C        4.88219         5.74035        -1.58068
   C       -2.41305        -5.79498        -0.43697
   C       -3.87101        -5.50150        -0.81273
   C        5.16523        -0.95573         1.01963
   C       -4.42143         1.57219        -0.16701
   C       -5.42391         0.63671        -0.37028
   C       -6.72206         1.18151        -0.37195
   C       -6.75500         2.55809        -0.17116
   S       -5.10412         3.16230         0.02794
   C       -7.85873         3.49373        -0.08672
   S       -7.42095         5.18681         0.02166
   C       -9.06914         5.73273         0.18984
   C       -9.93816         4.64553         0.13262
   C       -9.25967         3.37076        -0.04844
   C      -11.40717         4.74759         0.33847
   C      -12.14467         3.47691         0.27851
   C      -11.49427         2.23099        -0.02559
   C      -10.03124         2.11270        -0.18396
   C      -13.51425         3.36265         0.44937
   S      -13.99509         1.70798         0.19978
   C      -12.37459         1.16673        -0.11354
   C       -9.26453         7.16490         0.33332
   C      -10.29272         7.98979        -0.09002
   C      -10.04980         9.36508         0.16877
   S       -7.98972         8.12122         1.07601
   O      -11.98484         5.81226         0.53545
   O       -9.52004         1.01877        -0.41855
   C      -14.50965         4.42906         0.80439
   C      -15.92729         3.93124         1.08806
   C      -12.12151        -0.25922        -0.50101
   C      -11.85241        -0.40620        -2.00541
   C       -8.84485         9.58994         0.79184
   F        1.20818         6.64093         0.63068
   F       -0.76250        -5.63804         2.09441
   H        3.78160         1.55021         0.62765
   H       -3.03688        -0.83454         0.29402
   H        0.01849         4.28376         1.37175
   H        0.30600        -3.14318         2.45521
   H        3.43248         7.10470        -0.69942
   H        2.99124         6.51405        -2.29530
   H        5.37160         5.43860        -0.64147
   H        5.47862         6.54389        -2.03901
   H        4.91444         4.87538        -2.26304
   H       -2.35862        -6.61138         0.30069
   H       -1.87315        -6.15884        -1.32965
   H       -4.44541        -5.16075         0.06281
   H       -4.36109        -6.39891        -1.22151
   H       -3.93512        -4.71226        -1.57952
   H        5.79743        -0.06681         0.88455
   H        5.46729        -1.70696         0.27195
   H        5.37645        -1.38672         2.01319
   H       -5.21335        -0.42094        -0.52851
   H       -7.63547         0.61708        -0.51765
   H      -11.19017         7.60219        -0.56134
   H      -10.74619        10.16097        -0.09664
   H      -14.51167         5.17682        -0.00787
   H      -14.10770         4.98471         1.66707
   H      -16.37795         3.45212         0.20329
   H      -16.57759         4.76886         1.37984
   H      -15.94238         3.19607         1.90913
   H      -12.98511        -0.87842        -0.20818
   H      -11.24780        -0.62112         0.05925
   H      -12.70917        -0.04659        -2.59657
   H      -11.66799        -1.46010        -2.26659
   H      -10.96488         0.17417        -2.29207
   H       -8.41943        10.53662         1.12111
*
