# ORCA input file
# PBDB-T_tetra.out: Geometry 332
! B3LYP def2-TZVP def2/J RIJCOSX Grid4 TightSCF

%maxcore 6000
%tddft
  maxdim 5
  nroots 50
  end
%pal
  nprocs 6
  end


* xyz 0 1
   C       -0.55107        -0.84754         0.88774
   C        0.17753        -2.05543         0.74202
   C       -0.43183        -3.18155         0.10571
   C       -1.73314        -3.17268        -0.41324
   C       -2.46831        -1.97005        -0.26129
   C       -1.86314        -0.84845         0.38470
   C        1.53500        -2.34747         1.13270
   C        1.93889        -3.61712         0.83570
   S        0.67732        -4.54434         0.03292
   C       -3.83558        -1.70951        -0.62392
   C       -4.26818        -0.45589        -0.26611
   S       -3.00463         0.47262         0.54584
   C       -0.00665         0.36198         1.52071
   C       -2.31403        -4.36946        -1.04065
   C       -0.18725         1.67428         1.12657
   C        0.39445         2.62249         2.01367
   C        1.02816         2.05156         3.09244
   S        0.89499         0.31737         3.02368
   C       -2.44625        -5.63223        -0.50577
   C       -3.09057        -6.55250        -1.38221
   C       -3.43640        -6.00752        -2.59677
   S       -2.96765        -4.32880        -2.66370
   C        1.82466         2.73494         4.16890
   C        3.23998         3.12824         3.71227
   C       -4.08696        -6.68935        -3.76810
   C       -4.94932        -5.77809        -4.64528
   C        3.26783        -4.24708         1.11537
   C       -5.56313         0.16607        -0.44966
   C       -6.80809        -0.38468        -0.72356
   C       -7.85679         0.56606        -0.77269
   C       -7.43398         1.87169        -0.54250
   S       -5.69544         1.89060        -0.26407
   C       -8.10465         3.15279        -0.44869
   S       -7.06428         4.54972        -0.61408
   C       -8.29734         5.68438        -0.11983
   C       -9.50163         5.00669         0.08921
   C       -9.40307         3.57510        -0.14101
   C      -10.73374         5.63107         0.62795
   C      -11.85392         4.70457         0.87603
   C      -11.79694         3.30746         0.52238
   C      -10.58035         2.68483        -0.03722
   C      -13.07132         5.08744         1.41489
   S      -14.14228         3.71572         1.47598
   C      -12.97639         2.63220         0.78040
   C       -7.86747         7.06425        -0.03948
   C       -8.55016         8.26746        -0.15823
   C       -7.69997         9.39718        -0.17322
   S       -6.13778         7.36470         0.10164
   O      -10.82568         6.83279         0.86645
   O      -10.56244         1.51127        -0.40220
   C      -13.50262         6.43718         1.90990
   C      -14.92946         6.50049         2.45205
   C      -13.37011         1.21738         0.47544
   C      -13.77913         1.03709        -0.99510
   C       -1.60127        10.66896         0.48682
   C       -2.98830        10.69768         0.22189
   C       -3.62681        11.91857        -0.16218
   C       -2.93002        13.12460        -0.31974
   C       -1.54184        13.10239        -0.01385
   C       -0.91606        11.87816         0.37355
   C       -3.90685         9.60562         0.28213
   C       -5.20030         9.95351        -0.02618
   S       -5.34684        11.66776        -0.43748
   C       -0.60672        14.18754        -0.00912
   C        0.67104        13.81803         0.34224
   S        0.79475        12.09210         0.69021
   C       -0.87860         9.43295         0.83739
   C       -3.58718        14.34636        -0.80288
   C       -0.34492         9.05719         2.04743
   C        0.39389         7.83633         1.98035
   C        0.43520         7.28716         0.72063
   S       -0.47009         8.26883        -0.40113
   C       -4.74443        14.95630        -0.37116
   C       -5.05562        16.14984        -1.09135
   C       -4.15254        16.44556        -2.08679
   S       -2.89895        15.23723        -2.14495
   C        1.16798         6.06189         0.25669
   C        0.32093         5.09879        -0.57985
   C       -4.15565        17.59233        -3.05845
   C       -2.77546        18.21094        -3.31572
   C       -6.35335         9.08627        -0.04875
   C        1.81128        14.69116         0.49806
   C        1.83185        16.07702         0.42063
   C        3.09678        16.63891         0.69564
   C        4.06540        15.69377         0.98592
   S        3.39390        14.07645         0.89856
   C        5.45230        15.87408         1.35958
   S        6.65035        14.79539         0.68698
   C        7.94565        15.48250         1.64209
   C        7.46170        16.52046         2.43491
   C        6.04331        16.74764         2.26848
   C        8.24425        17.21328         3.49247
   C        7.41901        17.85467         4.53976
   C        6.00599        18.08400         4.36655
   C        5.29271        17.69203         3.13426
   C        7.89400        18.27659         5.76817
   S        6.58652        18.93961         6.71241
   C        5.40702        18.67192         5.46356
   C        9.26220        14.88242         1.53175
   C       10.51397        15.46923         1.52192
   C       11.56880        14.52879         1.37875
   S        9.40145        13.13887         1.35893
   O        9.46906        17.22157         3.52769
   O        4.16233        18.09130         2.87918
   C        9.28579        18.20366         6.31787
   C        9.36322        18.16166         7.84325
   C        3.98298        19.08775         5.66937
   C        3.72560        20.53861         5.23613
   C       11.12172        13.23219         1.28017
   H        2.19111        -1.62505         1.61679
   H       -4.46364        -2.43203        -1.14320
   H       -0.71353         1.95010         0.21340
   H        0.34839         3.70052         1.85948
   H       -2.11265        -5.87853         0.50245
   H       -3.30991        -7.58844        -1.11699
   H        1.88365         2.08588         5.05755
   H        1.27695         3.63730         4.48808
   H        3.80411         2.24495         3.37387
   H        3.80324         3.60744         4.52945
   H        3.19740         3.83380         2.86728
   H       -4.69292        -7.52143        -3.37239
   H       -3.30497        -7.15846        -4.39430
   H       -5.72678        -5.27080        -4.05324
   H       -5.44302        -6.35557        -5.44160
   H       -4.33864        -4.99944        -5.13054
   H        3.94637        -3.51088         1.56979
   H        3.73933        -4.62995         0.19519
   H        3.17381        -5.09957         1.80871
   H       -6.96309        -1.45561        -0.86199
   H       -8.90115         0.33288        -0.95926
   H       -9.63336         8.30657        -0.22939
   H       -8.06041        10.42249        -0.26728
   H      -13.36012         7.15885         1.08885
   H      -12.77859         6.76534         2.67423
   H      -15.66783         6.26124         1.67042
   H      -15.15607         7.50804         2.83144
   H      -15.08123         5.79257         3.28242
   H      -14.20130         0.92223         1.13595
   H      -12.51612         0.56201         0.69798
   H      -14.59166         1.72800        -1.26735
   H      -14.12807         0.00886        -1.18122
   H      -12.92041         1.23585        -1.65228
   H       -3.60480         8.59679         0.56368
   H       -0.87792        15.21207        -0.25375
   H       -0.48098         9.64877         2.95384
   H        0.89759         7.38062         2.83472
   H       -5.33431        14.57290         0.46210
   H       -5.91876        16.78069        -0.87088
   H        1.56526         5.55292         1.15061
   H        2.05313         6.36653        -0.33030
   H       -0.57088         4.76878        -0.02604
   H        0.90232         4.20831        -0.86358
   H       -0.03052         5.58225        -1.50539
   H       -4.84969        18.35621        -2.67234
   H       -4.58259        17.25154        -4.01996
   H       -2.31779        18.57022        -2.38061
   H       -2.84700        19.06105        -4.01135
   H       -2.08711        17.47594        -3.76314
   H        0.94564        16.66734         0.18954
   H        3.31120        17.70360         0.70700
   H       10.65341        16.54121         1.62747
   H       12.62303        14.80850         1.35160
   H        9.86181        19.06455         5.93117
   H        9.77322        17.32714         5.86721
   H        8.96119        19.08047         8.30066
   H       10.40707        18.05867         8.17436
   H        8.79354        17.31213         8.25147
   H        3.71680        18.95704         6.73155
   H        3.34517        18.41706         5.07859
   H        4.37380        21.23687         5.78670
   H        2.67846        20.82172         5.42760
   H        3.92766        20.65201         4.16043
   H       11.71102        12.32314         1.17256
*
