# ORCA input file
# PTB7-Th_tetra.out: Geometry 66
! B3LYP def2-TZVP def2/J RIJCOSX Grid4 TightSCF

%maxcore 6000
%tddft
  maxdim 5
  nroots 50
  end
%pal
  nprocs 6
  end


* xyz 0 1
   C        0.45792         2.25695         0.30686
   C        1.42119         1.21537         0.28377
   C        0.99853        -0.15061         0.23067
   C       -0.34294        -0.54828         0.18254
   C       -1.30706         0.49480         0.21395
   C       -0.88554         1.85927         0.27000
   C        2.84989         1.32945         0.27139
   C        3.50074         0.11899         0.23367
   S        2.37684        -1.23932         0.16794
   C       -2.73057         0.38570         0.24805
   C       -3.39038         1.59731         0.31420
   S       -2.25420         2.95032         0.35354
   C        0.81994         3.67834         0.37631
   C       -0.70644        -1.96643         0.08478
   C        4.92346        -0.10681         0.25515
   C        0.31149         4.73180        -0.35521
   C        0.85442         5.99530         0.02000
   C        1.77001         5.92161         1.04444
   S        1.97013         4.26861         1.55733
   C       -0.20306        -3.03815         0.79191
   C       -0.73128        -4.29303         0.36921
   C       -1.63133        -4.19401        -0.66619
   S       -1.83929        -2.52638        -1.12897
   S        5.60738        -1.69438         0.56894
   C        7.24930        -1.14763         0.48555
   C        7.26532         0.21449         0.21992
   C        5.95992         0.80021         0.10347
   C        8.28442         1.20825         0.03216
   C        7.80989         2.47093        -0.21153
   S        6.03072         2.52540        -0.18180
   F        9.57707         0.87721         0.11323
   C        8.46325         3.80033        -0.32092
   C        2.51968         7.03706         1.71762
   C        3.98150         6.71468         2.05096
   C       -2.34902        -5.29703        -1.39219
   C       -3.81318        -4.99504        -1.73110
   O        9.76261         3.88001        -0.65708
   O        7.83893         4.80405        -0.07348
   C       10.41510         3.00636        -1.58972
   C       11.16459         3.86746        -2.58724
   C      -12.32389         0.96670        -0.21173
   C      -10.97504         0.54344        -0.11803
   C      -10.64090        -0.84496        -0.09182
   C      -11.60473        -1.86020        -0.13847
   C      -12.95971        -1.44107        -0.21927
   C      -13.28692        -0.04970        -0.25763
   C       -9.81404         1.36980        -0.03354
   C       -8.63010         0.67644         0.01624
   S       -8.89243        -1.07337        -0.00935
   C      -14.14822        -2.25644        -0.26667
   C      -15.29324        -1.52536        -0.35689
   S      -15.02157         0.19716        -0.38308
   C      -12.67745         2.39229        -0.23107
   C      -11.22223        -3.27883        -0.09717
   C       -7.32927         1.28296         0.10436
   C      -13.58477         3.06998         0.55580
   C      -13.59361         4.47798         0.32237
   C      -12.70652         4.88337        -0.64797
   S      -11.85817         3.51064        -1.30125
   C      -10.38241        -3.91856         0.78930
   C      -10.24377        -5.31502         0.52900
   C      -10.96275        -5.74861        -0.55988
   S      -11.82052        -4.41580        -1.28618
   S       -5.84185         0.36875         0.14882
   C       -4.81992         1.78405         0.30315
   C       -5.63143         2.93208         0.33087
   C       -7.02873         2.63691         0.19375
   C       -5.44841         4.35139         0.47069
   C       -6.59871         5.09543         0.38242
   S       -8.02958         4.07044         0.20055
   F       -4.25170         4.88264         0.71945
   C       -6.91017         6.53608         0.57309
   C      -12.40610         6.26674        -1.14875
   C      -10.91096         6.60726        -1.16604
   C      -11.07761        -7.13443        -1.12699
   C      -12.51933        -7.64429        -1.24555
   O       -5.94853         7.46633         0.46058
   O       -8.03854         6.87003         0.85390
   C       -4.82079         7.38365        -0.42720
   C       -4.62043         8.74878        -1.05915
   C        8.39602        -2.08837         0.67449
   H        3.36941         2.28404         0.31825
   H       -3.25249        -0.57003         0.22205
   H       -0.41377         4.59350        -1.15786
   H        0.57944         6.93677        -0.45856
   H        0.51005        -2.91973         1.60838
   H       -0.45337        -5.24731         0.81973
   H        1.99138         7.32156         2.64620
   H        2.45871         7.91852         1.05845
   H        4.05287         5.88542         2.77313
   H        4.48191         7.58548         2.50183
   H        4.54670         6.41606         1.15467
   H       -2.27765        -6.20284        -0.76818
   H       -1.80508        -5.53301        -2.32528
   H       -4.39172        -4.75455        -0.82580
   H       -4.28769        -5.85598        -2.22699
   H       -3.89786        -4.13476        -2.41432
   H        9.67395         2.36527        -2.09369
   H       11.10140         2.35514        -1.02919
   H       10.46866         4.48496        -3.17620
   H       11.74358         3.23353        -3.27797
   H       11.86011         4.53948        -2.06210
   H       -9.87559         2.45317        -0.01529
   H      -14.13292        -3.34475        -0.23571
   H      -16.31244        -1.90715        -0.40582
   H      -14.19487         2.57061         1.30934
   H      -14.22460         5.17920         0.87081
   H       -9.90350        -3.40115         1.62123
   H       -9.63501        -5.98734         1.13615
   H      -12.95181         6.97745        -0.50813
   H      -12.82437         6.39173        -2.16465
   H      -10.46027         6.53564        -0.16583
   H      -10.74758         7.62878        -1.54350
   H      -10.35482         5.92073        -1.82344
   H      -10.48964        -7.80780        -0.48314
   H      -10.59737        -7.17062        -2.12160
   H      -13.01070        -7.67982        -0.26113
   H      -12.54266        -8.65400        -1.68436
   H      -13.12028        -6.98555        -1.89147
   H       -5.00393         6.61456        -1.19463
   H       -3.93824         7.08286         0.15365
   H       -5.50572         9.05064        -1.63962
   H       -3.74941         8.73082        -1.73348
   H       -4.44188         9.50813        -0.28377
   H        8.13979        -2.89954         1.37153
   H        9.26515        -1.54737         1.07389
   H        8.70263        -2.55593        -0.27772
*
