# ORCA input file
# AQx-2.out: Geometry 262
! Engrad Keepdens
%maxcore 1000
%tddft
  nroots 3 
  # nroots is the number of states to be computed
  Iroot 1
  end
* xyz 0 1
   C        4.53080         2.45302        -1.40038
   O        5.51954         2.12565        -2.03512
   C        3.56765         3.52064        -1.77848
   C        3.55420         4.28554        -2.93960
   C        2.52682         5.21230        -3.08599
   F        2.43228         5.95854        -4.18326
   C        1.56084         5.37394        -2.07630
   F        0.60950         6.28775        -2.25275
   C        1.57828         4.60792        -0.91354
   C        2.59631         3.65618        -0.76703
   C        2.87883         2.66575         0.30323
   C        2.16261         2.56436         1.48693
   C        2.43296         1.59246         2.50003
   N        2.63097         0.80440         3.33228
   C        1.09377         3.45048         1.82647
   N        0.22942         4.16636         2.12883
   C        4.04196         1.88729        -0.12167
   C        4.57903         0.80135         0.54656
   C        5.69760        -0.03754         0.35492
   S        6.94032         0.09107        -0.91969
   C        7.82171        -1.22511        -0.21469
   C        7.17917        -1.73704         0.93641
   C        5.98221        -1.09288         1.26512
   C        5.10078        -1.55135         2.39457
   C        4.02468        -2.53457         1.90630
   S        8.08038        -3.02595         1.74264
   C        9.32846        -2.84874         0.54595
   C        9.04404        -1.89647        -0.44458
   N       10.10857        -1.81485        -1.33370
   C       10.29065        -0.59562        -2.12213
   C       10.70090         0.60330        -1.27125
   C       11.09395        -2.70326        -0.88915
   C       10.62887        -3.33810         0.30570
   C       11.43221        -4.21213         1.10380
   N       10.93077        -4.77006         2.22233
   C       11.75736        -5.52816         2.92672
   C       13.09879        -5.74382         2.53417
   N       13.60873        -5.20541         1.43674
   C       12.78028        -4.43491         0.70481
   C       13.21561        -3.87712        -0.53857
   C       12.37935        -3.08505        -1.38790
   N       13.03813        -2.90149        -2.60630
   C       12.48871        -2.46686        -3.88845
   C       13.05154        -1.12932        -4.36734
   C       14.26862        -3.53774        -2.52214
   C       14.40772        -4.11611        -1.25096
   S       15.85786        -5.05100        -1.04801
   C       16.27286        -4.71496        -2.72997
   C       15.32184        -3.90912        -3.39199
   S       15.71113        -3.75687        -5.07074
   C       17.15364        -4.78530        -4.87532
   C       17.31359        -5.21215        -3.54164
   C       18.29479        -6.21906        -3.00385
   C       19.20714        -5.66924        -1.89651
   C       17.78042        -5.20739        -6.08249
   C       19.00250        -5.77230        -6.36823
   C       20.28503        -5.84043        -5.68953
   C       20.78929        -4.90650        -4.80410
   C       22.07061        -5.03876        -4.18800
   N       23.09975        -5.15001        -3.65938
   C       20.07351        -3.71180        -4.49205
   N       19.49639        -2.73468        -4.24163
   C       21.03725        -6.97391        -6.28355
   C       22.23769        -7.59097        -5.90944
   C       22.67733        -8.66951        -6.67485
   F       23.80144        -9.30350        -6.35358
   C       21.96202        -9.12892        -7.79568
   F       22.43371       -10.18068        -8.45918
   C       20.78580        -8.50158        -8.19163
   C       20.34024        -7.43235        -7.42137
   C       19.09656        -6.63228        -7.59676
   O       18.30078        -6.70026        -8.50946
   H        4.31144         4.15759        -3.71540
   H        0.79825         4.78211        -0.17470
   H        4.03575         0.50485         1.44044
   H        4.62063        -0.70381         2.90490
   H        5.73611        -2.04629         3.14744
   H        3.33149        -2.04050         1.20897
   H        3.43904        -2.91973         2.75409
   H        4.48184        -3.38837         1.38239
   H        9.34084        -0.39595        -2.64326
   H       11.03283        -0.78392        -2.89749
   H        9.92904         0.84405        -0.52613
   H       10.83976         1.48711        -1.91247
   H       11.64536         0.40408        -0.74069
   H       11.36788        -5.99217         3.83925
   H       13.75678        -6.37231         3.14405
   H       11.39554        -2.44464        -3.79408
   H       12.71113        -3.25359        -4.62815
   H       12.51707        -0.79290        -5.26910
   H       14.11930        -1.21445        -4.61945
   H       12.95280        -0.35364        -3.59351
   H       18.88818        -6.65194        -3.81594
   H       17.69894        -7.04891        -2.58237
   H       19.83532        -4.84272        -2.24970
   H       19.86606        -6.46308        -1.51505
   H       18.61792        -5.28294        -1.05125
   H       17.12641        -5.19156        -6.96597
   H       22.83326        -7.28257        -5.05121
   H       20.23192        -8.85027        -9.06458
*
