# ORCA input file
# BTA43.out: Geometry 438
! Engrad Keepdens
%maxcore 1000
%tddft
  nroots 3 
  # nroots is the number of states to be computed
  Iroot 1
  end
* xyz 0 1
   C        2.48897        -2.61765        -0.43746
   C        2.53644        -2.05384         0.86642
   C        1.52815        -1.20077         1.33355
   C        0.43159        -0.99596         0.51152
   C        0.29913        -1.69907        -0.71629
   C        1.35014        -2.48737        -1.21971
   C        3.78386        -3.40320        -0.73421
   C        4.36095        -3.51382         0.68590
   C        3.67571        -2.64540         1.52679
   C        5.34410        -4.26613         1.36306
   C        5.39482        -3.96768         2.72738
   S        4.23372        -2.70248         3.14829
   C       -0.79516        -0.10654         0.78344
   C       -1.71434        -0.55769        -0.35206
   C       -1.05347        -1.45678        -1.17812
   C       -3.06627        -0.36677        -0.70321
   C       -3.45672        -1.19091        -1.75587
   S       -2.09390        -2.12256        -2.38381
   C        6.17204        -4.58363         3.77786
   C       -4.80203        -1.43097        -2.23753
   C       -1.34836        -0.44171         2.17254
   C       -0.44925         1.38014         0.59495
   C        3.46942        -4.73734        -1.40788
   C        4.74314        -2.53563        -1.57965
   C        5.92975        -4.32792         5.13642
   C        6.62120        -4.95831         6.18534
   C        7.64307        -5.89397         5.97605
   C        7.94415        -6.14138         4.59926
   C        7.22415        -5.52264         3.53081
   C       -5.20491        -2.65567        -2.78384
   C       -6.53724        -2.94487        -3.13738
   C       -7.58887        -2.03153        -2.98639
   C       -7.18767        -0.74403        -2.50413
   C       -5.83983        -0.45504        -2.12886
   N        8.86342        -6.96325         4.06004
   N        8.67911        -6.82309         2.75778
   N        7.72834        -5.99229         2.37044
   N       -7.91996         0.36912        -2.31037
   N       -7.03526         1.24371        -1.85496
   N       -5.79043         0.82782        -1.71629
   C        8.36566        -6.59138         7.00868
   C        8.02637        -6.77932         8.31226
   C       -8.98513        -2.30474        -3.21482
   C       -9.61059        -3.49023        -3.45084
   C       -7.40144         2.61787        -1.56584
   C        9.49490        -7.54175         1.79731
   C      -11.08484        -3.57853        -3.53503
   N      -11.48040        -4.93618        -3.67255
   C      -10.47009        -5.84717        -3.75141
   S       -8.88620        -5.08915        -3.60250
   C        8.89198        -7.54320         9.23273
   N        8.23061        -7.72640        10.47702
   C        6.99401        -7.16593        10.58550
   S        6.52534        -6.31561         9.11438
   C        8.89792        -8.48051        11.53233
   O       10.00239        -7.96888         9.00824
   C        6.12643        -7.18636        11.66881
   C        4.86787        -6.52145        11.53396
   C        6.38561        -7.81634        12.92180
   C        2.72108        -5.70313        -0.71003
   C        2.31997        -6.88250        -1.32185
   C        2.65732        -7.13364        -2.66526
   C        3.41786        -6.19087        -3.36620
   C        3.81456        -5.00596        -2.73276
   C        4.29686        -1.48029        -2.39192
   C        5.18306        -0.72486        -3.15491
   C        6.55791        -1.00354        -3.13075
   C        7.02005        -2.06322        -2.33473
   C        6.11628        -2.81013        -1.57480
   C       -2.22859        -1.52359         2.35108
   C       -2.60000        -1.94896         3.61969
   C       -2.08156        -1.31460         4.76148
   C       -1.21824        -0.22074         4.60108
   C       -0.86790         0.20647         3.31379
   C        0.81462         1.80715         0.15643
   C        1.07157         3.14652        -0.11416
   C        0.06104         4.10682         0.02851
   C       -1.20286         3.70277         0.48784
   C       -1.44064         2.35410         0.76889
   O      -11.87626        -2.66486        -3.48340
   C      -12.90223        -5.26545        -3.68767
   C      -10.55077        -7.22152        -3.92596
   C       -9.33126        -7.96548        -3.96866
   C      -11.76052        -7.96027        -4.08414
   N        3.85043        -5.97537        11.39865
   N        6.55038        -8.31569        13.95887
   N      -12.72343        -8.59809        -4.21627
   N       -8.32507        -8.54642        -4.00091
   O       -2.47352        -1.82794         5.95387
   O        0.39954         5.37819        -0.29909
   O        7.35033        -0.20965        -3.89455
   O        2.20483        -8.29800        -3.19111
   C       -1.95473        -1.27827         7.14330
   C       -0.58360         6.38448        -0.26611
   C        8.74383        -0.40694        -3.85918
   C        2.45788        -8.58083        -4.54782
   H        1.58537        -0.73898         2.32032
   H        1.26520        -3.00509        -2.17684
   H        5.97456        -5.03804         0.92503
   H       -3.76970         0.28340        -0.18578
   H        5.14597        -3.61897         5.40955
   H        6.34821        -4.66475         7.20003
   H       -4.46319        -3.44865        -2.89672
   H       -6.73188        -3.93716        -3.54244
   H        9.29904        -7.07801         6.70915
   H       -9.66283        -1.44933        -3.13009
   H       -8.48110         2.71530        -1.72246
   H       -6.85747         3.29255        -2.24086
   H       -7.13388         2.86004        -0.52786
   H       10.07857        -6.82864         1.19771
   H        8.84674        -8.12859         1.13168
   H       10.16356        -8.20120         2.36099
   H        9.86114        -8.80448        11.12194
   H        8.30293        -9.35568        11.82331
   H        9.06171        -7.84923        12.41571
   H        2.43299        -5.50924         0.32606
   H        1.73142        -7.63042        -0.78705
   H        3.70803        -6.35954        -4.40266
   H        4.39422        -4.27569        -3.29969
   H        3.23616        -1.23080        -2.43107
   H        4.82993         0.09977        -3.77685
   H        8.07931        -2.31825        -2.29380
   H        6.50401        -3.62651        -0.96406
   H       -2.61863        -2.05252         1.48080
   H       -3.27921        -2.79139         3.76272
   H       -0.80898         0.30540         5.46272
   H       -0.19698         1.06100         3.20042
   H        1.61723         1.08393         0.01644
   H        2.05245         3.47608        -0.46172
   H       -2.00784         4.42466         0.62731
   H       -2.42601         2.05677         1.13552
   H      -13.44074        -4.32693        -3.51462
   H      -13.13829        -5.98599        -2.89418
   H      -13.19764        -5.69084        -4.65595
   H       -2.40789        -1.83954         7.97037
   H       -2.21837        -0.21055         7.25001
   H       -0.85577        -1.38232         7.19694
   H       -0.09336         7.30958        -0.59819
   H       -0.98954         6.53876         0.75061
   H       -1.42339         6.15879        -0.94735
   H        9.18752         0.35052        -4.51753
   H        9.02678        -1.40946        -4.22797
   H        9.15021        -0.27771        -2.84005
   H        1.96316        -9.53575        -4.76744
   H        3.53903        -8.68038        -4.75415
   H        2.04283        -7.80234        -5.21227
*
