# ORCA input file
# BTA53.out: Geometry 35
! Engrad Keepdens
%maxcore 1000
%tddft
  nroots 3 
  # nroots is the number of states to be computed
  Iroot 1
  end
* xyz 0 1
   C       -1.95580         2.56275         0.06612
   C       -1.85931         3.90958        -0.46064
   C       -4.81001        -7.27453         6.38547
   C       -4.99784        -0.94847         6.15801
   C       -2.61047        -0.31307         6.76957
   C       -4.44016        -1.59926        -0.23356
   C       -2.61563        -3.33853        -0.20484
   C       -1.83460         4.16659        -1.84062
   C       -1.79180         5.46001        -2.39396
   C       -1.76610         6.62982        -1.62066
   C       -1.76572         6.39563        -0.20774
   C       -1.81164         5.08272         0.35251
   C       -4.86829        -8.28686         5.41743
   C       -5.20671        -9.62143         5.70191
   C       -5.52611       -10.07426         6.98923
   C       -5.50943        -9.05251         7.99335
   C       -5.15622        -7.69748         7.70788
   N       -1.72150         7.27677         0.80914
   N       -1.73778         6.50993         1.88640
   N       -1.79274         5.20377         1.69498
   N       -5.79596        -9.13869         9.30596
   N       -5.61556        -7.90362         9.74466
   N       -5.23643        -6.99984         8.86019
   C       -1.74610         7.98370        -2.11128
   C       -1.77053         8.47544        -3.38038
   C       -5.85473       -11.42758         7.35491
   C       -5.85048       -12.56656         6.60982
   C       -5.84403        -7.54713        11.13319
   C       -1.69379         7.08211         3.21813
   C       -6.26284       -13.86257         7.18981
   N       -6.19503       -14.88082         6.20116
   C       -5.74700       -14.49258         4.97462
   S       -5.39273       -12.76591         4.92016
   C       -1.73358         9.93244        -3.63604
   N       -1.75068        10.18149        -5.03423
   C       -1.83796         9.08264        -5.83466
   S       -1.85154         7.58716        -4.89986
   C       -1.67246        11.55879        -5.51209
   O       -1.69215        10.81748        -2.81197
   C       -1.91754         9.02576        -7.21905
   C       -2.01189         7.74328        -7.84210
   C       -1.93383        10.16010        -8.08379
   C       -4.62982        -1.35116        -1.60153
   C       -5.90910        -1.18156        -2.12244
   C       -7.04683        -1.25482        -1.29949
   C       -6.84629        -1.47085         0.06784
   C       -5.56165        -1.63780         0.59765
   C       -1.26254        -3.67780        -0.31432
   C       -0.88096        -4.98940        -0.60426
   C       -1.83303        -6.00397        -0.78037
   C       -3.18639        -5.64905        -0.68961
   C       -3.57406        -4.33822        -0.41412
   C       -5.68102        -1.20661         7.35512
   C       -7.01309        -0.82745         7.51131
   C       -7.70903        -0.17091         6.48276
   C       -7.02092         0.07797         5.28884
   C       -5.68923        -0.30856         5.12366
   C       -3.03904         0.97457         7.10515
   C       -2.19705         1.84239         7.80813
   C       -0.90879         1.45236         8.19605
   C       -0.48177         0.16261         7.83938
   C       -1.31336        -0.70302         7.13295
   O       -6.61678       -14.07283         8.32726
   C       -6.58957       -16.24132         6.55630
   C       -5.55258       -15.26471         3.83785
   C       -5.03693       -14.62949         2.66578
   C       -5.82400       -16.66118         3.73914
   N       -2.09046         6.69341        -8.33474
   N       -1.95065        11.06037        -8.81903
   N       -6.03610       -17.79722         3.61413
   N       -4.61123       -14.10057         1.72224
   C       -9.15256         0.23182         6.64150
   C       -0.00425         2.38485         8.96204
   C       -1.43179        -7.42833        -1.06699
   C       -8.42947        -1.11828        -1.88335
   S       -2.31838         2.22551         1.75611
   C       -2.38547         0.51360         1.45152
   C       -2.12312         0.23852         0.11353
   C       -1.87613         1.38299        -0.66712
   C       -2.66916        -0.56219         2.37403
   C       -2.92805        -1.82619         1.77994
   C       -3.02443        -1.94001         0.25497
   O       -2.09155        -1.02319        -0.37176
   C       -2.73617        -0.43596         3.77840
   C       -3.12650        -1.50473         4.58095
   C       -3.36903        -2.76311         3.97871
   C       -3.23120        -2.90877         2.59002
   C       -3.50978        -1.32124         6.05548
   O       -3.31163        -2.55744         6.80926
   C       -3.73664        -3.69937         6.22441
   C       -3.77180        -3.83615         4.84520
   C       -4.11459        -4.87057         6.92485
   C       -4.41902        -5.91963         6.06491
   S       -4.26753        -5.43157         4.38281
   H       -1.87767         3.32685        -2.53427
   H       -1.78943         5.52827        -3.48244
   H       -4.61030        -8.04049         4.38520
   H       -5.21846       -10.31266         4.85961
   H       -1.70726         8.76133        -1.34205
   H       -6.15689       -11.58053         8.39555
   H       -6.12122        -8.45988        11.67104
   H       -6.65477        -6.80769        11.19595
   H       -4.92827        -7.11254        11.55771
   H       -2.60982         7.66094         3.40580
   H       -0.82433         7.74852         3.29970
   H       -1.61212         6.25394         3.93010
   H       -1.55038        12.18780        -4.62317
   H       -2.58937        11.84265        -6.04591
   H       -0.81362        11.68719        -6.18360
   H       -3.76015        -1.31628        -2.25980
   H       -6.03466        -1.00008        -3.19378
   H       -7.71028        -1.52688         0.73534
   H       -5.44551        -1.83270         1.66444
   H       -0.50513        -2.90799        -0.16025
   H        0.18201        -5.23432        -0.68454
   H       -3.95398        -6.41319        -0.83956
   H       -4.63522        -4.09438        -0.35096
   H       -5.15503        -1.70446         8.17052
   H       -7.52261        -1.04364         8.45439
   H       -7.53244         0.58659         4.46753
   H       -5.19098        -0.09276         4.17931
   H       -4.04538         1.29995         6.83838
   H       -2.56355         2.83462         8.08590
   H        0.51357        -0.17553         8.14086
   H       -0.96811        -1.70642         6.88067
   H       -6.92145       -16.20477         7.60069
   H       -5.74362       -16.93375         6.45493
   H       -7.41140       -16.58589         5.91608
   H       -9.40316         1.08483         5.99391
   H       -9.38535         0.51081         7.68063
   H       -9.82845        -0.59575         6.36379
   H       -0.58097         3.08537         9.58555
   H        0.61654         2.98976         8.27748
   H        0.68333         1.82818         9.61743
   H       -0.35448        -7.58520        -0.91044
   H       -1.66823        -7.70867        -2.10785
   H       -1.97558        -8.13171        -0.41780
   H       -9.20614        -1.29013        -1.12383
   H       -8.58988        -1.84251        -2.69821
   H       -8.58867        -0.11538        -2.31419
   H       -1.65120         1.33238        -1.73093
   H       -2.52750         0.53276         4.23665
   H       -3.42374        -3.88227         2.13873
   H       -4.16752        -4.95821         8.00820
*
