# ORCA input file
# BTCIC.out: Geometry 95
! Engrad Keepdens
%maxcore 1000
%tddft
  nroots 3 
  # nroots is the number of states to be computed
  Iroot 1
  end
* xyz 0 1
   S        2.55450        -1.09224        -0.60312
   N        1.25207        -1.92702        -0.05566
   C        0.35207        -1.03804         0.36677
   C        0.80390         0.33870         0.21006
   N        2.02195         0.43368        -0.32311
   C       -0.96073        -1.32323         0.89025
   C       -1.69265        -0.21310         1.30498
   C       -1.25016         1.11859         1.15865
   C       -0.02493         1.45101         0.59054
   C        0.35937         2.82554         0.34426
   C       -1.52244        -2.65762         0.87624
   C       -0.88724        -3.89057         0.71822
   C       -1.80022        -4.95876         0.64497
   C       -3.12887        -4.53838         0.72517
   S       -3.28190        -2.83703         0.92841
   C       -1.70342        -6.47825         0.50587
   C       -3.19710        -6.82116         0.36442
   C       -3.98397        -5.65993         0.53011
   C       -3.97986        -7.93581         0.06546
   C       -5.35731        -7.64994        -0.00531
   S       -5.66108        -5.93727         0.34073
   C       -0.15867         3.96752         0.95874
   C        0.29102         5.15796         0.36162
   C        1.17745         4.91263        -0.69315
   S        1.47855         3.23754        -0.95485
   C        0.18699         6.65422         0.65486
   C        1.06928         7.20576        -0.46547
   C        1.64735         6.15930        -1.20551
   C        1.33951         8.46045        -1.01172
   C        2.15040         8.39459        -2.15940
   S        2.58655         6.71244        -2.52660
   C       -6.44545        -8.42308        -0.46776
   C       -6.54039        -9.73561        -0.88583
   C       -5.69357       -10.90533        -0.77453
   C       -6.06597       -11.82922        -1.87738
   C       -7.24315       -11.34694        -2.48969
   C       -7.63354       -10.05478        -1.86152
   C       -5.48726       -13.01658        -2.33767
   C       -6.10360       -13.68888        -3.40192
   C       -7.27901       -13.20625        -3.99295
   C       -7.86417       -12.02079        -3.53325
   C       -4.84117       -11.21611         0.27599
   O       -8.59731        -9.36662        -2.12882
   C       -4.00683       -12.37529         0.28439
   C       -4.82659       -10.45586         1.48210
   N       -3.29657       -13.29620         0.29400
   N       -4.82770        -9.85925         2.47971
   C       -1.05337        -7.04858         1.80277
   C       -0.87126        -6.82268        -0.77753
   C       -1.62042        -6.60715         3.16360
   C       -0.15457        -8.18630        -0.95362
   C       -2.94242        -7.31869         3.52557
   C       -3.98479        -6.41169         4.17461
   C       -0.52348        -6.83210         4.22523
   C       -0.90005        -6.50523         5.66917
   C        1.14549        -8.37355        -0.13933
   C        2.10111        -7.18209        -0.11809
   C       -1.09299        -9.39827        -0.81346
   C       -0.45361       -10.76566        -1.06110
   C        0.77404         6.91294         2.07590
   C        2.23564         6.45700         2.28466
   C        3.25785         7.56485         1.91858
   C        4.48429         7.07325         1.14747
   C        2.43299         5.92151         3.71549
   C        3.81480         5.33147         3.99951
   C       -1.23055         7.28239         0.52483
   C       -2.41135         6.56076         1.21154
   C       -3.40985         7.63274         1.69846
   C       -3.03851         5.52072         0.25409
   C       -3.74686         4.33456         0.91430
   C        2.65592         9.39256        -3.02387
   C        2.33876        10.71898        -3.22622
   C        1.25382        11.60226        -2.83321
   C        1.70924        12.99752        -3.08319
   C        2.90822        12.95508        -3.82571
   C        3.34405        11.54433        -3.97729
   C        1.14373        14.23882        -2.77025
   C        1.78288        15.39879        -3.22724
   C        2.95311        15.33921        -3.99670
   C        3.53031        14.10191        -4.30214
   O        4.33441        11.13901        -4.55143
   C       -0.05189        11.25497        -2.51271
   C       -1.03828        12.21644        -2.12823
   C       -0.56606         9.93412        -2.66750
   N       -1.02239         8.87359        -2.80578
   N       -1.85112        12.97613        -1.79077
   C       -4.69095         7.14964         2.37781
   H       -2.68504        -0.36938         1.73286
   H       -1.93330         1.91528         1.45331
   H        0.19510        -3.96820         0.63083
   H       -3.58864        -8.92273        -0.15167
   H       -0.84160         3.91323         1.80470
   H        0.98327         9.40355        -0.60098
   H       -7.36342        -7.86106        -0.68625
   H       -4.57658       -13.41901        -1.89913
   H       -5.65170       -14.60844        -3.77982
   H       -7.73818       -13.76054        -4.81447
   H       -8.77761       -11.61661        -3.97317
   H        0.00433        -6.75235         1.76104
   H       -1.07094        -8.14701         1.75726
   H       -0.10504        -6.04085        -0.88384
   H       -1.54511        -6.67744        -1.63743
   H       -1.81633        -5.52159         3.11631
   H        0.17198        -8.16512        -2.01135
   H       -2.72864        -8.17823         4.18368
   H       -3.39608        -7.76556         2.63407
   H       -4.31121        -5.62662         3.47214
   H       -4.87606        -6.98645         4.46975
   H       -3.59486        -5.90464         5.07114
   H        0.36276        -6.23727         3.94169
   H       -0.20303        -7.88924         4.17142
   H       -1.19497        -5.44869         5.78379
   H       -0.04875        -6.69041         6.34360
   H       -1.73627        -7.12476         6.02681
   H        1.68148        -9.22762        -0.58158
   H        0.91230        -8.67791         0.89313
   H        2.34113        -6.83437        -1.13677
   H        3.04862        -7.45922         0.37009
   H        1.69251        -6.32174         0.43477
   H       -1.93642        -9.25961        -1.50953
   H       -1.52814        -9.40288         0.19911
   H        0.03842       -10.81353        -2.04735
   H       -1.21054       -11.56364        -1.01429
   H        0.30495       -11.00422        -0.30103
   H        0.11589         6.38724         2.78642
   H        0.67543         7.98684         2.30769
   H        2.41368         5.60330         1.60888
   H        3.57997         8.08065         2.84174
   H        2.76105         8.33754         1.31278
   H        5.04676         6.31112         1.70576
   H        5.17570         7.90243         0.92849
   H        4.18826         6.62377         0.18604
   H        1.67218         5.14327         3.89942
   H        2.21515         6.73219         4.43560
   H        4.06738         4.55078         3.26326
   H        3.85155         4.86993         4.99904
   H        4.60678         6.09447         3.95964
   H       -1.46852         7.41250        -0.54305
   H       -1.13955         8.30190         0.93487
   H       -2.03497         6.02827         2.10515
   H       -3.67815         8.26444         0.83205
   H       -2.86844         8.29787         2.39341
   H       -2.24865         5.12071        -0.40009
   H       -3.73582         6.04881        -0.42179
   H       -3.07410         3.81143         1.61335
   H       -4.06830         3.60132         0.15787
   H       -4.63431         4.62946         1.48900
   H        3.51089         9.08778        -3.64396
   H        0.22801        14.32222        -2.18972
   H        1.34896        16.36975        -2.97731
   H        3.41645        16.26064        -4.35629
   H        4.44516        14.01582        -4.89171
   H       -5.35731         6.62274         1.67855
   H       -5.25668         8.00380         2.78261
   H       -4.47691         6.46808         3.21746
*
