# ORCA input file
# BTCIC-4Cl.out: Geometry 189
! Engrad Keepdens
%maxcore 1000
%tddft
  nroots 3 
  # nroots is the number of states to be computed
  Iroot 1
  end
* xyz 0 1
   S       -0.09759         0.21804         4.17755
   N       -0.61137        -1.13647         3.40639
   C       -0.33720        -0.98914         2.10919
   C        0.30438         0.29024         1.80963
   N        0.48916         1.04882         2.88957
   C       -0.62049        -1.94304         1.06324
   C       -0.17668        -1.58393        -0.20545
   C        0.42744        -0.34276        -0.49445
   C        0.64301         0.64893         0.45822
   C        1.07725         1.98081         0.07461
   C       -1.37694        -3.15692         1.29759
   C       -2.24217        -3.44618         2.35231
   C       -2.92324        -4.66760         2.17975
   C       -2.55753        -5.31892         0.99720
   S       -1.37908        -4.44765         0.09014
   C       -4.03702        -5.42669         2.90204
   C       -4.23443        -6.59441         1.93656
   C       -3.35318        -6.49373         0.84136
   C       -5.11205        -7.66894         1.82968
   C       -4.93610        -8.39587         0.63592
   S       -3.59314        -7.72289        -0.32312
   C        1.76170         2.97742         0.77460
   C        1.97339         4.14019        -0.00609
   C        1.40889         4.01782        -1.27965
   S        0.64476         2.50815        -1.55187
   C        2.73962         5.47316         0.10774
   C        2.48625         6.05449        -1.29140
   C        1.68054         5.18362        -2.04545
   C        2.81224         7.21736        -1.99357
   C        2.24459         7.24717        -3.28440
   S        1.28232         5.78428        -3.59168
   C       -5.62215        -9.47959         0.04564
   C       -6.82761       -10.08870         0.34872
   C       -7.40194       -11.22568        -0.37839
   C       -8.75443       -11.47360         0.18069
   C       -9.00272       -10.52579         1.18996
   C       -7.82195        -9.64627         1.36376
   C       -9.74155       -12.41457        -0.12448
   C      -10.95375       -12.36873         0.57701
   C      -11.19103       -11.39837         1.57439
   C      -10.19692       -10.46708         1.88918
   C       -6.83607       -11.96145        -1.40796
   O       -7.75128        -8.74316         2.18287
   C       -7.50322       -13.06476        -2.02719
   C       -5.54287       -11.69639        -1.95927
   N       -8.02927       -13.96783        -2.53605
   N       -4.49795       -11.48511        -2.42408
  Cl      -12.17269       -13.53493         0.19332
  Cl      -12.70222       -11.34510         2.41546
   C       -5.32279        -4.55294         2.97664
   C       -3.57373        -5.98428         4.27994
   C       -5.96413        -4.21085         1.60714
   C       -2.96388        -5.00816         5.30094
   C       -7.15102        -5.15013         1.26407
   C       -7.23552        -5.58899        -0.19865
   C       -6.36187        -2.72293         1.56693
   C       -6.91955        -2.23745         0.22994
   C       -3.98702        -4.05897         5.97860
   C       -3.65320        -2.57624         5.82120
   C       -2.15503        -5.79414         6.34972
   C       -1.31778        -4.91180         7.27621
   C        4.23693         5.20259         0.38404
   C        4.95583         4.36260        -0.69116
   C        5.63323         5.24871        -1.76757
   C        5.41090         4.79539        -3.20937
   C        5.94164         3.39212        -0.02076
   C        6.66696         2.44418        -0.97166
   C        2.11902         6.44645         1.14502
   C        2.22086         6.08065         2.64800
   C        3.40903         6.81330         3.31447
   C        3.99802         6.17609         4.57509
   C        0.85281         6.38751         3.29244
   C        0.69650         6.13249         4.78866
   C        2.25105         8.18760        -4.34138
   C        3.08790         9.25198        -4.61249
   C        2.95185        10.16085        -5.75103
   C        4.23273        10.89387        -5.88184
   C        5.09425        10.49069        -4.84313
   C        4.40164         9.51223        -3.96380
   C        4.68220        11.82412        -6.82114
   C        5.99242        12.30803        -6.71363
   C        6.85216        11.87746        -5.67966
   C        6.39262        10.96106        -4.72694
   O        4.86865         9.01926        -2.95101
   C        1.84482        10.34478        -6.56148
   C        1.82069        11.27072        -7.65126
   C        0.60930         9.64533        -6.38585
   N       -0.40661         9.09127        -6.27410
   N        1.77194        12.01202        -8.54525
  Cl        8.47716        12.46563        -5.58001
  Cl        6.54389        13.44719        -7.89375
   H       -0.35327        -2.26607        -1.03991
   H        0.71473        -0.14703        -1.52964
   H       -2.36800        -2.75952         3.18398
   H       -5.89609        -7.93814         2.53155
   H        2.09117         2.82587         1.80113
   H        3.43555         8.03318        -1.63864
   H       -5.11102        -9.86926        -0.83359
   H       -9.61652       -13.18095        -0.88493
   H      -10.35312        -9.71195         2.66046
   H       -5.06222        -3.62396         3.50410
   H       -6.05878        -5.07368         3.61208
   H       -2.81592        -6.75245         4.06036
   H       -4.42699        -6.51882         4.73315
   H       -5.19330        -4.34865         0.82872
   H       -2.23015        -4.38833         4.75915
   H       -8.09243        -4.65524         1.56457
   H       -7.09854        -6.05903         1.87794
   H       -7.38738        -4.74294        -0.88430
   H       -8.06602        -6.29627        -0.35273
   H       -6.31024        -6.10077        -0.50761
   H       -5.47287        -2.12094         1.82499
   H       -7.09840        -2.52847         2.36831
   H       -6.20575        -2.42724        -0.58847
   H       -7.12417        -1.15548         0.25387
   H       -7.86300        -2.74048        -0.03062
   H       -4.04087        -4.29886         7.05369
   H       -5.00045        -4.24802         5.59704
   H       -2.62867        -2.35828         6.16341
   H       -4.34161        -1.94090         6.39836
   H       -3.71799        -2.25468         4.76901
   H       -1.48487        -6.49720         5.82590
   H       -2.84811        -6.41742         6.94651
   H       -0.62020        -4.28344         6.69656
   H       -0.72096        -5.52048         7.97380
   H       -1.94300        -4.23638         7.88253
   H        4.29418         4.69651         1.36039
   H        4.75643         6.16669         0.50907
   H        4.19686         3.73899        -1.19499
   H        6.71621         5.29907        -1.55603
   H        5.27464         6.28489        -1.68378
   H        5.76090         3.76516        -3.37964
   H        5.94621         5.44860        -3.91506
   H        4.34085         4.83226        -3.47066
   H        5.38203         2.79690         0.72308
   H        6.68186         3.98084         0.55373
   H        5.95226         1.83899        -1.55526
   H        7.31828         1.75050        -0.41613
   H        7.30074         2.98882        -1.68887
   H        1.06093         6.56727         0.86682
   H        2.58425         7.43433         0.98632
   H        2.40052         4.99391         2.74423
   H        3.09897         7.85217         3.53115
   H        4.22299         6.89913         2.57792
   H        3.28544         6.14006         5.40986
   H        4.87630         6.74472         4.91914
   H        4.33437         5.14422         4.37816
   H        0.09671         5.79458         2.75062
   H        0.60737         7.44470         3.08125
   H        0.96832         5.09881         5.05912
   H       -0.34871         6.29599         5.09655
   H        1.31660         6.80955         5.39233
   H        1.48156         7.99289        -5.09073
   H        4.06529        12.18352        -7.64163
   H        7.04013        10.61636        -3.91941
*
