# ORCA input file
# CPDT-4F.out: Geometry 22
! Engrad Keepdens
%maxcore 1000
%tddft
  nroots 3 
  # nroots is the number of states to be computed
  Iroot 1
  end
* xyz 0 1
   C       -0.99898         5.03151         1.95528
   C       -2.15001         4.29619         2.22677
   C       -2.13921         2.89017         2.26939
   C       -0.95885         2.18759         2.05091
   C        0.18826         2.92488         1.78189
   C        0.19338         4.33225         1.72441
   C        1.55237         2.41287         1.49732
   C        2.39922         3.59881         1.23801
   C        1.56697         4.79321         1.39287
   C        3.72803         3.56360         0.85543
   C        4.64053         2.52429         0.56151
   C        5.93146         2.82144         0.05400
   C        6.66894         1.69331        -0.28882
   C        5.95467         0.50979        -0.00506
   S        4.38728         0.76744         0.64665
   C        8.02133         1.36997        -0.93351
   C        7.95509        -0.15655        -0.93767
   C        6.74815        -0.60889        -0.39629
   C        8.76661        -1.20627        -1.40156
   C        8.17753        -2.46101        -1.21560
   S        6.59551        -2.32685        -0.44783
   C        8.66122        -3.75331        -1.60926
   S       10.09727        -3.89920        -2.62323
   C        9.91114        -5.61712        -2.67070
   C        8.80341        -6.05513        -1.93985
   C        8.09684        -5.00273        -1.33680
   C       10.54364        -6.74493        -3.27661
   C        9.83909        -7.91648        -2.91804
   C        8.64455        -7.56865        -2.02787
   S       11.86996        -7.05639        -4.30751
   C       11.51954        -8.80516        -4.27522
   C       10.39958        -9.07256        -3.45878
   C       12.36337        -9.59947        -5.08692
   C       12.43546       -10.95799        -5.34409
   C       13.37468       -11.58557        -6.28057
   C       13.16482       -13.05310        -6.20615
   C       12.13920       -13.31461        -5.27881
   C       11.62629       -12.03819        -4.71800
   C       13.78854       -14.12401        -6.86189
   C       13.36629       -15.41455        -6.55520
   C       12.34151       -15.65809        -5.62119
   C       11.71146       -14.60143        -4.97200
   F       11.98569       -16.91517        -5.37117
   F       13.94408       -16.45450        -7.15203
   O       10.72199       -11.95007        -3.90351
   C       14.29714       -10.97431        -7.11520
   C       15.15393       -11.71229        -7.99060
   C       14.48924        -9.56005        -7.20291
   C        8.73526        -8.21734        -0.62516
   C        7.28979        -7.89083        -2.72341
   C        7.04989        -9.35660        -3.07789
   C       10.05818        -7.97488         0.10038
   C        9.22855         1.89731        -0.12091
   C        8.09213         1.86401        -2.40763
   C        8.03818         3.37520        -2.62037
   C        9.31086         1.39997         1.31957
   O        1.88776         1.23958         1.48232
   F       -3.29951         4.92831         2.45237
   F       -3.27671         2.24794         2.52153
   C        1.93646         6.12115         1.24863
   C        1.01447         7.20427         1.39245
   C        3.26693         6.54037         0.93356
   N        4.34557         6.89061         0.67596
   N        0.28011         8.09886         1.50066
   N       15.85444       -12.29753        -8.71016
   N       14.66910        -8.41456        -7.29063
   H       -1.07943         6.11649         1.93087
   H       -0.93968         1.09684         2.08750
   H        4.19785         4.53308         0.69491
   H        6.26054         3.85528        -0.05641
   H        9.74491        -1.08084        -1.86728
   H        7.19858        -5.12004        -0.72952
   H       10.05982       -10.09509        -3.30869
   H       13.09683        -8.99559        -5.62031
   H       14.58666       -14.00765        -7.59171
   H       10.91335       -14.78089        -4.24965
   H        8.56044        -9.30017        -0.72779
   H        7.89656        -7.82653        -0.02348
   H        7.23015        -7.28076        -3.63901
   H        6.48517        -7.52786        -2.06054
   H        7.79986        -9.72921        -3.78981
   H        6.06327        -9.47485        -3.55282
   H        7.07086       -10.01149        -2.19406
   H       10.90545        -8.38299        -0.47145
   H       10.05480        -8.46412         1.08542
   H       10.24584        -6.90098         0.25721
   H        9.19244         2.99811        -0.12873
   H       10.14461         1.61676        -0.67008
   H        7.27063         1.38620        -2.96508
   H        9.02620         1.46511        -2.83868
   H        7.06416         3.79340        -2.32546
   H        8.18725         3.61338        -3.68482
   H        8.81713         3.90922        -2.05776
   H        8.39713         1.65146         1.88120
   H       10.15879         1.86686         1.84274
   H        9.44541         0.30804         1.36649
*
