# ORCA input file
# F-2F.out: Geometry 41
! Engrad Keepdens
%maxcore 1000
%tddft
  nroots 3 
  # nroots is the number of states to be computed
  Iroot 1
  end
* xyz 0 1
   C        2.98213        -0.88739         1.55338
   O        3.18296         0.27144         1.23232
   C        1.71372        -1.42580         2.10346
   C        0.53195        -0.73403         2.34255
   C       -0.52424        -1.44054         2.90646
   F       -1.68666        -0.84353         3.15488
   C       -0.37858        -2.80201         3.22965
   F       -1.40731        -3.42848         3.79730
   C        0.80175        -3.49575         2.97143
   C        1.86674        -2.79576         2.38786
   C        3.22948        -3.22061         1.97386
   C        3.70059        -4.52132         2.04356
   C        5.00623        -4.91423         1.61178
   N        6.06334        -5.25106         1.26379
   C        2.92000        -5.60860         2.54653
   N        2.30881        -6.51069         2.95137
   C        3.92712        -2.02750         1.48583
   C       15.77300        14.45819        -1.65014
   O       14.84466        15.10820        -1.21555
   C       17.21599        14.80439        -1.59234
   C       17.80437        15.91368        -0.99345
   C       19.19114        16.00729        -1.03571
   F       19.82633        17.03094        -0.47002
   C       19.95104        15.01510        -1.68071
   F       21.27366        15.15231        -1.69906
   C       19.35951        13.90877        -2.28709
   C       17.96414        13.79701        -2.23507
   C       17.02842        12.77676        -2.78536
   C       17.37448        11.82390        -3.73227
   C       16.41737        11.08422        -4.48680
   N       15.67257        10.46614        -5.13121
   C       18.73078        11.57598        -4.11142
   N       19.83156        11.35195        -4.40989
   C       15.70315        13.10030        -2.29080
   C        8.08342         2.33259        -0.26811
   C        9.37715         1.90972        -0.68169
   C       10.33461         2.85127        -1.03722
   C        9.99001         4.21156        -0.95515
   C        8.70450         4.62510        -0.51439
   C        7.73435         3.68892        -0.18801
   C        8.61836         6.14479        -0.45503
   C        7.38690         6.72040        -1.18284
   C        7.28920         6.34515        -2.66017
   C        8.68405         6.63158         1.03062
   C        7.47689         6.34052         1.91680
   C        9.95119         6.54156        -1.07953
   C       10.77266         5.40435        -1.27778
   C       12.11514         5.53362        -1.67450
   C       12.62097         6.81198        -1.88827
   C       11.77390         7.94513        -1.71511
   C       10.43581         7.81919        -1.31611
   C        5.23384        -1.96170         1.03961
   C       14.50131        12.43970        -2.13566
   C       12.59499         9.11486        -1.90212
   C       13.92712         8.75909        -2.13575
   C       14.06288         7.24323        -2.20513
   S       12.34857        10.80775        -1.86907
   C       14.07528        11.09154        -2.18090
   C       14.76344         9.86910        -2.29344
   C        9.48542         0.37678        -0.68772
   C        8.10546        -0.00433        -0.15709
   C        7.32619         1.14348         0.03250
   C        7.40411        -1.15950         0.19102
   C        6.07619        -0.90552         0.61374
   S        5.72832         0.83448         0.57312
   C       14.49354         6.86781        -3.65264
   C       15.00724         6.67625        -1.11390
   C       10.64436        -0.12395         0.20630
   C        9.68498        -0.10207        -2.15528
   C       10.59746         0.34941         1.65656
   C        9.63167        -1.61093        -2.38322
   C       14.64561         5.37859        -3.95301
   C       16.47318         7.09061        -1.21505
   H        0.43228         0.32411         2.09514
   H        0.84601        -4.54855         3.24156
   H       17.20508        16.68313        -0.50413
   H       20.00811        13.17873        -2.76705
   H       11.32700         2.54608        -1.37815
   H        6.72974         3.98447         0.11866
   H        7.40327         7.81848        -1.06934
   H        6.47955         6.38205        -0.65743
   H        8.18595         6.66222        -3.21503
   H        6.41984         6.82708        -3.13235
   H        7.18282         5.25699        -2.79034
   H        8.86644         7.71962         1.01108
   H        9.58555         6.18420         1.47969
   H        6.56212         6.82348         1.54261
   H        7.66142         6.73001         2.93011
   H        7.27855         5.26233         2.01094
   H       12.74967         4.65134        -1.77258
   H        9.81858         8.70483        -1.14977
   H        5.77025        -2.90938         1.00836
   H       13.72960        13.13777        -1.78345
   H       15.83695         9.81531        -2.44533
   H        7.79805        -2.17654         0.17183
   H       15.44010         7.38869        -3.86949
   H       13.75857         7.31243        -4.34215
   H       14.93503         5.57686        -1.14238
   H       14.60295         6.97894        -0.13378
   H       11.59016         0.19737        -0.26392
   H       10.65042        -1.22529         0.17850
   H       10.65706         0.28984        -2.49937
   H        8.92082         0.38775        -2.77993
   H       10.68332         1.44477         1.72909
   H       11.42033        -0.09312         2.23784
   H        9.65447         0.05281         2.14260
   H       10.34543        -2.15850        -1.75094
   H        9.87917        -1.84734        -3.42963
   H        8.62755        -2.01527        -2.18366
   H       15.34512         4.88080        -3.26358
   H       15.04154         5.23966        -4.97103
   H       13.68324         4.84838        -3.89945
   H       16.91003         6.83902        -2.19329
   H       17.07062         6.57245        -0.45030
   H       16.60590         8.17049        -1.05313
*
