# ORCA input file
# i-cc34.out: Geometry 71
! Engrad Keepdens
%maxcore 1000
%tddft
  nroots 3 
  # nroots is the number of states to be computed
  Iroot 1
  end
* xyz 0 1
   C       -0.77263        -4.40839         0.06997
   C        0.66681        -4.47924        -0.09463
   S        1.29144        -4.51283        -1.74610
   C        2.89602        -4.31215        -1.15646
   C        2.95776        -4.23645         0.22208
   C        1.68198        -4.33071         0.83746
   C        4.17047        -3.99464        -1.76008
   C        5.08022        -3.72251        -0.70508
   C        4.39187        -3.92281         0.66616
   C        4.52336        -3.82289        -3.10095
   C        5.80290        -3.36800        -3.37850
   C        6.72605        -3.09821        -2.33420
   C        6.36656        -3.27371        -0.98555
   C        6.36336        -2.94529        -4.74755
   C        7.76101        -2.48999        -4.34848
   C        7.92686        -2.57915        -2.97569
   C        8.87474        -1.92136        -5.01236
   C        9.89375        -1.58258        -4.13956
   S        9.46459        -1.97178        -2.46850
   C        4.45390        -2.61969         1.47823
   C        4.96377        -5.11214         1.45363
   C        6.39806        -4.06517        -5.79146
   C        5.47227        -1.77203        -5.20789
   C        5.99010        -5.92650         0.96765
   C        6.48222        -6.99401         1.72797
   C        5.97170        -7.28213         2.99755
   C        4.92377        -6.47410         3.47212
   C        4.43077        -5.41329         2.71862
   C        3.50188        -1.60972         1.27170
   C        3.54096        -0.42589         2.00443
   C        4.53873        -0.19825         2.96529
   C        5.50743        -1.19455         3.14416
   C        5.46567        -2.38841         2.41776
   C        4.29343        -2.02090        -5.92206
   C        3.39787        -0.99187        -6.21498
   C        3.64780         0.32757        -5.81274
   C        4.83437         0.57076        -5.10367
   C        5.73062        -0.45552        -4.80507
   C        6.66948        -3.74907        -7.13156
   C        6.63765        -4.73008        -8.12140
   C        6.33810        -6.06538        -7.81019
   C        6.11386        -6.38429        -6.46481
   C        6.14434        -5.40379        -5.47040
   C        6.53977        -8.40142         3.84308
   C        5.50040        -9.40803         4.34719
   C        4.55224         1.07505         3.77954
   C        4.70251         2.35111         2.94220
   C        6.19413        -7.11275        -8.88981
   C        4.73205        -7.32950        -9.31195
   C        2.70227         1.46767        -6.13504
   C        1.24727         1.07275        -6.39064
   S       -1.83716        -5.41828        -0.88058
   C       -3.21666        -4.49930        -0.44071
   C       -2.90513        -3.46622         0.42723
   C       -1.50161        -3.45098         0.75451
   C       -3.85214        -2.48204         0.91130
   O       -0.95602        -2.51530         1.56969
   C       -0.36244        -1.38974         0.91446
   C       -4.86330        -1.89632         0.21331
   C       -5.99840        -1.21828         0.96193
   C       -7.06995        -1.05192        -0.05283
   C       -6.58524        -1.47371        -1.33901
   C       -5.17466        -1.86527        -1.22758
   C       -8.36359        -0.60348        -0.07491
   S       -9.00356        -0.70505        -1.68373
   C       -7.52874        -1.33948        -2.33391
   O       -6.01456        -0.92819         2.13721
   C       -4.30325        -1.93978        -2.29577
   C       -4.78997        -1.82673        -3.63504
   C       -2.88185        -1.99925        -2.16438
   N       -1.72185        -1.97865        -2.10358
   N       -5.20893        -1.74952        -4.71631
   C       11.16532        -0.93968        -4.45138
   S       11.39284         0.75774        -4.02382
   C       12.91084         0.83208        -4.79024
   C       13.28556        -0.37663        -5.36340
   C       12.26833        -1.39519        -5.14875
   C       14.53700        -0.73831        -5.96101
   O       12.52064        -2.62376        -5.62892
   C       11.86838        -3.76610        -5.08988
   C       15.62983        -0.04287        -6.40142
   C       16.91615        -0.83521        -6.54197
   C       17.98720         0.18808        -6.61379
   C       17.39337         1.49609        -6.63840
   C       15.92702         1.36802        -6.64482
   C       19.35430         0.20168        -6.65409
   S       19.93281         1.83681        -6.71259
   C       18.33054         2.50240        -6.69695
   O       17.01879        -2.04235        -6.54562
   C       15.05665         2.38169        -7.00560
   C       15.53109         3.71701        -7.19515
   C       13.68483         2.16006        -7.32121
   N       12.56854         1.99011        -7.59640
   N       15.92948         4.80105        -7.32609
   H        1.47966        -4.24303         1.90454
   H        3.79811        -3.99945        -3.89675
   H        7.06305        -3.02521        -0.18222
   H        8.94272        -1.72521        -6.08247
   H        6.42115        -5.72975        -0.01357
   H        7.28977        -7.60976         1.32205
   H        4.49263        -6.67191         4.45646
   H        3.63193        -4.79175         3.12842
   H        2.70997        -1.75910         0.53718
   H        2.77208         0.33320         1.83145
   H        6.30037        -1.04529         3.88255
   H        6.21469        -3.15919         2.60795
   H        4.06401        -3.03429        -6.25535
   H        2.48921        -1.23280        -6.76795
   H        5.06034         1.58639        -4.76524
   H        6.63095        -0.23127        -4.23155
   H        6.87290        -2.71285        -7.41066
   H        6.83776        -4.45015        -9.15977
   H        5.88827        -7.41785        -6.18576
   H        5.94274        -5.68682        -4.43669
   H        7.06159        -7.95904         4.71154
   H        7.31358        -8.93112         3.26467
   H        4.73073        -8.92133         4.96680
   H        5.97728       -10.18920         4.96086
   H        4.98442        -9.89949         3.50714
   H        5.36634         1.01778         4.52096
   H        3.61523         1.13627         4.36177
   H        5.64785         2.34736         2.37663
   H        4.68897         3.24499         3.58590
   H        3.88395         2.45436         2.21205
   H        6.61546        -8.06660        -8.53041
   H        6.79031        -6.81742        -9.76839
   H        4.12065        -7.66360        -8.45844
   H        4.64848        -8.09083       -10.10424
   H        4.28807        -6.39557        -9.69195
   H        3.09358         2.00715        -7.01823
   H        2.74805         2.19804        -5.30920
   H        1.14121         0.44212        -7.28712
   H        0.62464         1.96611        -6.54995
   H        0.82811         0.51153        -5.53973
   H       -4.20200        -4.77008        -0.81454
   H       -3.78939        -2.19630         1.96883
   H        0.19452        -0.83668         1.68211
   H       -1.13678        -0.74313         0.47038
   H        0.32190        -1.71214         0.11543
   H       -8.96726        -0.22072         0.74604
   H       -7.45323        -1.57498        -3.39311
   H       13.49867         1.74440        -4.73722
   H       14.69663        -1.82340        -5.99733
   H       11.85202        -3.72923        -3.98882
   H       12.45393        -4.63178        -5.42580
   H       10.83618        -3.85407        -5.45900
   H       20.04455        -0.64018        -6.65535
   H       18.18411         3.58014        -6.73163
*
