# ORCA input file
# IDTT-TBTA.out: Geometry 22
! Engrad Keepdens
%maxcore 1000
%tddft
  nroots 3 
  # nroots is the number of states to be computed
  Iroot 1
  end
* xyz 0 1
   C        1.28556         0.49463        -0.63964
   C        0.47321         1.65982        -0.57698
   C        0.70118         2.97910        -0.15957
   C       -0.43306         3.78249        -0.31596
   C       -1.56281         3.11646        -0.85913
   S       -1.20179         1.45753        -1.16895
   C       -2.67574         3.97267        -1.00300
   C       -4.08860         3.89574        -1.56949
   C       -5.01393         2.97259        -0.76275
   C       -4.68925         2.55802         0.53354
   C       -5.54698         1.72242         1.25250
   C       -6.75765         1.28030         0.70343
   C       -7.70456         0.41914         1.50481
   C       -8.65859         1.25281         2.37163
   C       -7.08223         1.70550        -0.59359
   C       -6.22616         2.53493        -1.31694
   C       -3.96736         3.43574        -3.02942
   C       -3.91248         4.32662        -4.10472
   C       -3.66819         3.86197        -5.40226
   C       -3.46653         2.50183        -5.66323
   C       -3.12420         1.99037        -7.04237
   C       -1.65877         1.54141        -7.14229
   C       -3.53890         1.61190        -4.58017
   C       -3.78711         2.06774        -3.28986
   C       -4.54178         5.36092        -1.39139
   C       -3.51924         6.13747        -0.77630
   C       -2.38459         5.26187        -0.57989
   S       -0.76258         5.47786         0.01271
   C       -3.70540         7.49459        -0.46893
   C       -4.92723         8.06802        -0.78445
   C       -5.38707         9.52124        -0.55587
   C       -5.52693         9.89457         0.93087
   C       -5.72729        11.23957         1.28065
   C       -5.90717        11.61504         2.60944
   C       -5.88525        10.66489         3.64238
   C       -5.97974        11.09487         5.08782
   C       -4.62179        11.54738         5.64519
   C       -5.69755         9.32357         3.28709
   C       -5.52575         8.94026         1.95303
   C       -4.44618        10.49422        -1.28340
   C       -4.73112        10.97025        -2.56856
   C       -3.87022        11.86586        -3.20582
   C       -2.69372        12.30809        -2.58675
   C       -1.75102        13.24787        -3.29875
   C       -0.77086        12.50497        -4.21618
   C       -2.40168        11.81235        -1.30757
   C       -3.26254        10.92348        -0.66450
   C       -6.77653         9.46679        -1.17306
   C       -7.06456         8.19243        -1.63845
   C       -5.94508         7.29928        -1.41841
   C       -5.76012         5.93888        -1.72004
   S       -8.64208         8.03676        -2.36706
   C       -8.93779         9.74318        -2.05206
   C       -7.84392        10.36146        -1.39538
   S       -8.12937        12.03741        -1.08161
   C       -9.71876        11.93632        -1.86751
   C       -9.98346        10.62955        -2.32290
   C      -10.66569        12.97298        -2.07728
   C        2.59955         0.19050        -0.33151
   C      -10.76001        14.30868        -1.74513
   C      -11.96320        15.00874        -2.22407
   N      -12.07837        16.36570        -1.86934
   C      -11.12800        17.08433        -1.16302
   N      -10.03274        16.37863        -0.68571
   C       -9.77266        15.02572        -0.95566
   C        3.57647         1.11929         0.22565
   N        4.86877         0.61726         0.46274
   C        5.30558        -0.64962         0.11397
   N        4.35619        -1.52273        -0.38927
   C        3.00524        -1.20114        -0.62040
   O      -12.82891        14.47561        -2.89810
   O       -8.74791        14.50830        -0.52995
   C       -8.99746        17.07793         0.10174
   C       -7.92793        17.70428        -0.78198
   C      -13.28158        17.05236        -2.38218
   C      -13.04933        17.66027        -3.76189
   S      -11.28955        18.72513        -0.89727
   O        3.34090         2.28772         0.49979
   C        5.81835         1.58344         1.05049
   S        6.90352        -1.10129         0.29684
   C        4.77328        -2.87517        -0.80987
   O        2.24195        -2.04508        -1.06077
   C        5.30933        -2.87661        -2.23779
   C        6.52836         2.41924        -0.00572
   H        0.76715        -0.38556        -1.03788
   H        1.66643         3.28403         0.23258
   H       -3.75103         2.88347         0.98540
   H       -5.25908         1.39130         2.25420
   H       -7.12176        -0.25966         2.14974
   H       -8.29020        -0.22016         0.82316
   H       -8.09493         1.89881         3.06352
   H       -9.32315         0.60763         2.96887
   H       -9.28862         1.90738         1.74763
   H       -8.01448         1.36283        -1.05143
   H       -6.49064         2.82194        -2.33626
   H       -4.05548         5.39534        -3.93398
   H       -3.62802         4.57834        -6.22741
   H       -3.33120         2.77325        -7.79020
   H       -3.78409         1.14210        -7.29331
   H       -0.97813         2.38124        -6.93149
   H       -1.42368         1.14476        -8.14310
   H       -1.43662         0.75194        -6.40757
   H       -3.39196         0.54161        -4.75073
   H       -3.85035         1.34981        -2.47056
   H       -2.91599         8.07706         0.00875
   H       -5.72570        12.00837         0.50610
   H       -6.06484        12.67020         2.85032
   H       -6.37296        10.26518         5.69858
   H       -6.70511        11.92051         5.18189
   H       -3.88971        10.72514         5.60854
   H       -4.70906        11.88813         6.68948
   H       -4.21201        12.37949         5.05153
   H       -5.68096         8.55718         4.06719
   H       -5.38206         7.88536         1.71306
   H       -5.64275        10.64994        -3.07468
   H       -4.12970        12.24505        -4.19816
   H       -1.18789        13.84055        -2.55872
   H       -2.33793        13.96673        -3.89479
   H       -0.13319        11.81837        -3.63610
   H       -0.11519        13.20696        -4.75630
   H       -1.31386        11.90150        -4.96099
   H       -1.49402        12.14692        -0.79757
   H       -3.02698        10.58433         0.34577
   H       -6.54882         5.35765        -2.20060
   H      -10.91429        10.37572        -2.83028
   H      -11.53885        12.63535        -2.64631
   H       -8.55597        16.32434         0.76324
   H       -9.50879        17.84049         0.69868
   H       -7.39675        16.93310        -1.36089
   H       -7.19052        18.23246        -0.15707
   H       -8.37750        18.43474        -1.47023
   H      -13.54646        17.82514        -1.65289
   H      -14.07100        16.29309        -2.41819
   H      -12.25368        18.41880        -3.72075
   H      -13.96924        18.15023        -4.11857
   H      -12.77252        16.88193        -4.48839
   H        6.53874         1.00671         1.64027
   H        5.22832         2.22698         1.71212
   H        3.88484        -3.50890        -0.72162
   H        5.53879        -3.21280        -0.10308
   H        4.53456        -2.54368        -2.94550
   H        5.62486        -3.89188        -2.52520
   H        6.18265        -2.21420        -2.32300
   H        7.12013         1.77734        -0.67533
   H        7.21367         3.12802         0.48594
   H        5.80506         2.99795        -0.60032
*
