# ORCA input file
# N65-IC.out: Geometry 94
! Engrad Keepdens
%maxcore 1000
%tddft
  nroots 3 
  # nroots is the number of states to be computed
  Iroot 1
  end
* xyz 0 1
   C       -2.98040        -0.85022         0.81003
   C       -2.03780        -1.26319         1.73942
   C       -0.97774        -0.37270         2.08721
   C       -0.97629         0.96507         1.56606
   C       -2.00373         1.36050         0.67374
   C       -2.96892         0.45707         0.28005
   C        0.14175        -0.81872         2.87727
   C        1.18910         0.05175         3.17951
   C        1.16501         1.37193         2.72620
   C        0.10254         1.82732         1.93240
   C       -2.20057        -2.62180         2.44712
   C       -0.85206        -3.10129         2.95518
   C        0.18578        -2.21939         3.21606
   C        2.26861         2.42830         2.86351
   C        1.63055         3.59778         2.10957
   C        0.39378         3.19972         1.59284
   C       -2.73660        -3.67470         1.45599
   C       -3.17238        -2.44926         3.65135
   C       -3.94928        -4.34932         1.62868
   C       -4.38889        -5.27295         0.67446
   C       -3.63823        -5.54838        -0.47512
   C       -2.39762        -4.90523        -0.61577
   C       -1.95704        -3.98479         0.33042
   C       -4.28060        -1.59403         3.58504
   C       -5.21829        -1.53968         4.61895
   C       -5.09373        -2.33776         5.76296
   C       -3.96873        -3.17165         5.84118
   C       -3.02633        -3.22014         4.81522
   C       -6.13653        -2.31403         6.85898
   C       -5.57611        -2.07879         8.26574
   C       -4.19595        -6.42158        -1.57059
   C       -5.05315        -5.61246        -2.55554
   C        2.59414         2.81140         4.31018
   C        3.50535         1.80110         2.10120
   C        1.94656         2.23625         5.41316
   C        2.28155         2.60709         6.71772
   C        3.27022         3.56626         6.97840
   C        3.89190         4.16444         5.87310
   C        3.56059         3.79450         4.57172
   C        3.65981         3.91284         8.40070
   C        4.09334         5.36342         8.62117
   C        1.87424         4.96397         1.83614
   C        0.80785         5.57709         1.12427
   S       -0.48498         4.45629         0.77050
   S        3.11439         6.13071         2.18359
   C        2.20201         7.41292         1.37637
   C        0.97702         6.94532         0.89253
   C       -0.47486        -4.43218         3.26787
   C        0.82764        -4.55164         3.79391
   S        1.62074        -3.00131         3.87092
   S       -1.26304        -5.97232         3.17809
   C        0.16324        -6.77704         3.84619
   C        1.18102        -5.86510         4.14271
   C        0.20913        -8.16902         4.13932
   C       -0.60451        -9.20758         3.76414
   C        4.81653         2.53981         2.10322
   C        5.13254         3.50947         1.14241
   C        6.36444         4.17185         1.17669
   C        7.31317         3.89703         2.17320
   C        6.99308         2.91730         3.12787
   C        5.77506         2.24588         3.08745
   C        8.64072         4.61916         2.22720
   C        9.86168         3.69440         2.16133
   C       -1.61975        -9.38010         2.73110
   C       -2.49011       -10.50486         3.15930
   C       -1.88090       -11.15448         4.25572
   C       -0.63511       -10.43321         4.63273
   C       -3.69654       -10.99961         2.65069
   C       -4.26209       -12.12911         3.25514
   C       -3.64365       -12.76943         4.33881
   C       -2.43697       -12.28118         4.85021
   O        0.16001       -10.73598         5.49754
   C       -1.62732        -8.80301         1.47420
   C       -2.64395        -9.08923         0.51224
   C       -0.55109        -8.00122         0.98083
   N       -3.47057        -9.31776        -0.27189
   N        0.33447        -7.40030         0.52843
   C        2.60355         8.77467         1.31431
   C        3.81244         9.40814         1.45281
   C        5.20383         8.98777         1.38547
   C        6.01626        10.06469         2.00665
   C        5.19901        11.20188         2.18905
   C        3.80147        10.87149         1.79767
   C        7.36449        10.11722         2.37691
   C        7.86577        11.31509         2.90016
   C        7.05366        12.44866         3.04507
   C        5.70061        12.39729         2.69129
   O        2.83628        11.60712         1.80224
   C        5.71893         7.94376         0.63738
   C        7.12283         7.71831         0.50173
   C        4.91375         7.11839        -0.20656
   N        8.25834         7.51394         0.35957
   N        4.29767         6.45057        -0.93075
   H       -3.75144        -1.55129         0.48845
   H       -2.00882         2.37045         0.26327
   H       -3.73301         0.75351        -0.44200
   H        2.03788        -0.31020         3.76276
   H       -4.56277        -4.15291         2.50747
   H       -5.34545        -5.78176         0.82162
   H       -1.77096        -5.12839        -1.48301
   H       -0.99056        -3.49462         0.19471
   H       -4.43411        -0.95891         2.71401
   H       -6.07433        -0.86537         4.52267
   H       -3.81676        -3.80191         6.72119
   H       -2.17149        -3.88277         4.93231
   H       -6.68290        -3.27508         6.84769
   H       -6.88442        -1.54010         6.62253
   H       -4.86247        -2.86557         8.55451
   H       -6.38580        -2.07728         9.01226
   H       -5.04575        -1.11517         8.32804
   H       -4.79674        -7.22977        -1.12795
   H       -3.37356        -6.91641        -2.11034
   H       -5.86677        -5.08930        -2.02779
   H       -5.50536        -6.26447        -3.31977
   H       -4.45103        -4.84780        -3.07306
   H        3.17345         1.62154         1.06750
   H        3.67149         0.81580         2.55994
   H        1.15872         1.49897         5.26064
   H        1.75465         2.13717         7.55249
   H        4.65411         4.93142         6.02005
   H        4.08166         4.27928         3.75201
   H        4.47921         3.23885         8.71327
   H        2.81551         3.67131         9.06807
   H        4.98756         5.62017         8.03306
   H        4.34130         5.54276         9.67895
   H        3.29517         6.06542         8.33221
   H        0.26212         7.59348         0.38534
   H        2.13106        -6.17093         4.58057
   H        0.96544        -8.45725         4.88094
   H        4.41629         3.75577         0.35444
   H        6.59474         4.90867         0.40455
   H        7.71332         2.67442         3.91398
   H        5.54829         1.49043         3.84366
   H        8.68686         5.20405         3.16465
   H        8.69320         5.35537         1.41220
   H        9.87935         2.97275         2.99439
   H       10.79326         4.28059         2.20886
   H        9.87039         3.11483         1.22429
   H       -4.20296       -10.52473         1.81331
   H       -5.20449       -12.52051         2.86609
   H       -4.11207       -13.64880         4.78600
   H       -1.92875       -12.75826         5.69029
   H        1.76913         9.48177         1.21211
   H        8.02055         9.25465         2.27562
   H        8.91325        11.36357         3.20567
   H        7.48210        13.36881         3.44906
   H        5.04026        13.25940         2.80565
*
