# ORCA input file
# N65-2FIC.out: Geometry 194
! Engrad Keepdens
%maxcore 1000
%tddft
  nroots 3 
  # nroots is the number of states to be computed
  Iroot 1
  end
* xyz 0 1
   C       -3.28252        -0.34484         0.62218
   C       -2.17145        -0.89766         1.23635
   C       -0.97127        -0.12925         1.32676
   C       -0.98761         1.24739         0.93146
   C       -2.16624         1.78917         0.35800
   C       -3.27782         0.99470         0.17272
   C        0.26613        -0.72645         1.76109
   C        1.41866         0.05200         1.89042
   C        1.38156         1.41935         1.61526
   C        0.19870         2.01235         1.13315
   C       -2.25850        -2.24193         1.97539
   C       -0.89798        -2.91235         1.95478
   C        0.26553        -2.15832         1.94298
   C        2.51716         2.44694         1.73500
   C        1.77515         3.70657         1.32164
   C        0.46764         3.42184         0.94819
   C       -3.27481        -3.19449         1.33148
   C       -2.63124        -1.91951         3.45165
   C       -4.34315        -3.75874         2.03096
   C       -5.17433        -4.70988         1.42670
   C       -4.96266        -5.12605         0.10884
   C       -3.88749        -4.54875        -0.59253
   C       -3.06469        -3.60031         0.00200
   C       -3.64954        -1.00002         3.74621
   C       -4.01287        -0.72203         5.06171
   C       -3.36688        -1.34369         6.14217
   C       -2.35357        -2.26217         5.84555
   C       -1.99101        -2.54751         4.52612
   C       -3.74270        -1.00865         7.56760
   C       -3.52674         0.46712         7.92043
   C       -5.84226        -6.14950        -0.57770
   C       -6.74228        -6.98002         0.33486
   C        3.03895         2.62168         3.16418
   C        3.63676         2.18662         0.64682
   C        2.35893         2.09814         4.26931
   C        2.81805         2.32780         5.56936
   C        3.96559         3.09031         5.81266
   C        4.64109         3.61987         4.70165
   C        4.19040         3.38803         3.40515
   C        4.44768         3.36850         7.21757
   C        4.29246         4.83939         7.62089
   C        2.07726         5.07049         1.18474
   C        0.98816         5.82669         0.67805
   S       -0.42850         4.82127         0.40898
   S        3.45826         6.06842         1.46091
   C        2.59767         7.49460         0.84884
   C        1.28235         7.18069         0.47763
   C       -0.61210        -4.29374         2.07202
   C        0.76813        -4.58741         2.15032
   S        1.72730        -3.13018         2.07995
   S       -1.56271        -5.73569         2.11643
   C       -0.10171        -6.73766         2.18198
   C        1.06056        -5.95733         2.20392
   C       -0.29009        -8.14338         2.23969
   C        0.54043        -9.22336         2.04121
   C        4.97499         1.62842         1.07166
   C        6.13200         2.21853         0.54518
   C        7.40370         1.75737         0.88751
   C        7.56772         0.68817         1.77602
   C        6.40929         0.09596         2.30430
   C        5.13856         0.55609         1.96072
   C        8.94285         0.20815         2.18072
   C        9.25586         0.45564         3.66074
   C        1.86550        -9.42362         1.47575
   C        2.32335       -10.77515         1.89196
   C        1.25181       -11.44641         2.51710
   C        0.07540       -10.54137         2.59109
   C        3.53629       -11.44794         1.69318
   C        3.63206       -12.76648         2.12994
   C        2.55471       -13.42219         2.75396
   C        1.34525       -12.76455         2.95128
   F        2.71629       -14.68415         3.14150
   F        4.76377       -13.44289         1.95319
   O       -1.02494       -10.80131         3.03253
   C        2.51422        -8.62680         0.54466
   C        3.84863        -8.89133         0.10640
   C        1.86391        -7.55331        -0.13203
   N        4.94468        -9.09086        -0.22517
   N        1.33199        -6.69893        -0.71337
   C        3.28178         8.73306         0.91353
   C        3.03148         9.98408         0.39405
   C        2.15471        10.52981        -0.62765
   C        2.10080        12.00071        -0.41897
   C        3.04690        12.35824         0.56405
   C        3.71896        11.13420         1.07086
   C        1.34543        13.00019        -1.04514
   C        1.55696        14.31793        -0.65010
   C        2.49382        14.65805         0.34282
   C        3.26041        13.67472         0.95832
   O        4.60941        11.07149         1.89334
   C        1.61761         9.87016        -1.72304
   C        0.74236        10.51219        -2.65327
   C        1.97896         8.53528        -2.06913
   N        0.01326        11.02995        -3.39597
   N        2.28411         7.45550        -2.37231
   F        2.62555        15.93751         0.68016
   F        0.86233        15.29692        -1.22071
   H       -4.18270        -0.94934         0.50217
   H       -2.18066         2.82904         0.02963
   H       -4.16816         1.40542        -0.30832
   H        2.34589        -0.41604         2.22248
   H       -4.52753        -3.47234         3.06588
   H       -5.98831        -5.13751         2.01328
   H       -3.67956        -4.87071        -1.61672
   H       -2.22442        -3.18478        -0.55890
   H       -4.16835        -0.48736         2.93737
   H       -4.81088         0.00068         5.25303
   H       -1.82816        -2.76729         6.66012
   H       -1.19482        -3.26854         4.34408
   H       -3.15861        -1.64323         8.25221
   H       -4.80204        -1.27328         7.73588
   H       -2.47164         0.75495         7.78687
   H       -3.81332         0.67329         8.96396
   H       -4.12971         1.12519         7.27710
   H       -5.19266        -6.82145        -1.16489
   H       -6.46531        -5.62298        -1.32462
   H       -6.15257        -7.53220         1.08434
   H       -7.31630        -7.71291        -0.25259
   H       -7.46911        -6.35418         0.87726
   H        3.83470         3.14012         0.13911
   H        3.18740         1.54074        -0.12395
   H        1.45508         1.50645         4.12334
   H        2.26772         1.89901         6.41073
   H        5.54473         4.21662         4.85274
   H        4.76366         3.79324         2.57229
   H        5.50880         3.07525         7.30515
   H        3.89449         2.72966         7.92375
   H        4.86002         5.49859         6.94682
   H        4.66127         5.01305         8.64438
   H        3.23718         5.15144         7.57519
   H        0.57308         7.92531         0.12157
   H        2.06118        -6.37791         2.27915
   H       -1.28708        -8.46304         2.57355
   H        6.03284         3.06742        -0.13717
   H        8.28392         2.24354         0.45895
   H        6.50474        -0.74020         3.00269
   H        4.26972         0.08381         2.41871
   H        9.69680         0.71002         1.55412
   H        9.03276        -0.87067         1.96139
   H        9.20322         1.52967         3.89995
   H       10.26205         0.09134         3.92266
   H        8.53579        -0.06139         4.31298
   H        4.40399       -11.00163         1.21170
   H        0.50189       -13.27236         3.42209
   H        4.15317         8.74663         1.58317
   H        0.60453        12.80639        -1.81804
   H        3.99887        13.93131         1.71976
*
