# ORCA input file
# p-IO1.out: Geometry 98
! Engrad Keepdens
%maxcore 1000
%tddft
  nroots 3 
  # nroots is the number of states to be computed
  Iroot 1
  end
* xyz 0 1
   C        5.04845        -7.29113        -1.98555
   O        5.82876        -6.78518        -2.77585
   C        4.08031        -8.36841        -2.32248
   C        3.85591        -8.94473        -3.56683
   C        2.89788        -9.95045        -3.64572
   C        2.19280       -10.35565        -2.49764
   C        2.42495        -9.77971        -1.25213
   C        3.38382        -8.76336        -1.16538
   C        3.87675        -7.96291        -0.01980
   C        3.51572        -8.17726         1.30049
   C        4.10766        -7.49492         2.40969
   N        4.56804        -6.96906         3.33892
   C        2.54023        -9.14840         1.68917
   N        1.74520        -9.92763         2.02422
   C        4.83561        -6.98837        -0.54485
   F        2.63400       -10.54744        -4.80511
   F        1.28206       -11.31905        -2.61339
   C       17.85892        11.50250         8.16503
   O       16.92640        12.27670         8.21755
   C       19.25082        11.73337         8.64309
   C       19.78014        12.87591         9.23747
   C       21.12279        12.85138         9.60304
   C       21.90530        11.70585         9.36773
   C       21.37252        10.55942         8.78626
   C       20.02124        10.57376         8.41750
   C       19.14419         9.51306         7.85804
   C       19.44814         8.16045         7.86723
   C       18.46588         7.14400         7.67184
   N       17.68371         6.29296         7.55311
   C       20.74878         7.65779         8.18348
   N       21.80448         7.22860         8.41407
   C       17.86137        10.13255         7.55058
   F       21.69911        13.90220        10.18291
   F       23.18659        11.73470         9.72257
   C        5.32376        -5.90507         0.16495
   C        6.25155        -4.88560        -0.15334
   C        7.11946        -4.66323        -1.23171
   C        7.90944        -3.51374        -1.06730
   C        7.65423        -2.80721         0.13132
   S        6.44186        -3.62223         1.06067
   C        8.29160        -1.62095         0.61346
   S        9.73776        -0.95377        -0.16348
   C        9.86516         0.24992         1.06567
   C        8.83722         0.17367         1.99543
   C        7.94871        -0.88561         1.75289
   C       10.80934         1.28766         1.42340
   C       10.34774         1.87109         2.63798
   C        9.02498         1.21335         3.09450
   C       11.98948         1.72612         0.79945
   C       12.69929         2.75725         1.39603
   C       12.23194         3.35441         2.60256
   C       11.05735         2.90714         3.23211
   C       13.98239         3.45351         0.89416
   C       14.10965         4.57048         1.92553
   C       13.15742         4.42687         2.92213
   C       15.07865         5.55319         2.20660
   C       14.88818         6.15027         3.44744
   S       13.45246         5.49116         4.25181
   C       15.73592         7.09598         4.13919
   S       15.04763         8.19795         5.30226
   C       16.63007         8.76743         5.79625
   C       17.61238         8.14724         5.02774
   C       17.13765         7.20886         4.09112
   C       16.76708         9.76636         6.79864
   O        8.84641        -3.04275        -1.90787
   C        9.18689        -3.81174        -3.06089
   C       10.19361        -3.02542        -3.89237
   C       11.48562        -2.75005        -3.11673
   C       10.46936        -3.76312        -5.20611
   C        7.90613         2.26357         3.14557
   C        9.11444         0.44528         4.42236
   C       15.27327         2.63248         1.08979
   C       13.80259         3.90163        -0.55407
   C       18.09142         6.35407         3.29666
   C       18.78543         5.26445         4.14656
   C        7.83840         3.14498         4.23581
   C        6.83236         4.10427         4.32246
   C        5.84496         4.21055         3.32910
   C        5.92534         3.33937         2.23427
   C        6.93957         2.38153         2.14066
   C       10.32582         0.04133         4.98844
   C       10.34329        -0.76720         6.13170
   C        9.15753        -1.19965         6.73684
   C        7.94363        -0.79314         6.15856
   C        7.92155         0.01507         5.02682
   C       16.44816         3.05561         0.44975
   C       17.68332         2.49508         0.77208
   C       17.79459         1.49302         1.74853
   C       16.61202         1.04503         2.35403
   C       15.37107         1.60344         2.03274
   C       13.40480         5.19937        -0.88891
   C       13.21917         5.56744        -2.22501
   C       13.41662         4.65090        -3.26581
   C       13.80977         3.34808        -2.92179
   C       14.00062         2.97947        -1.59267
   C        9.15478        -2.05855         7.97492
   C        4.71340         5.19629         3.46333
   C       19.14198         0.96519         2.16807
   C       13.19891         5.03464        -4.70663
   C       17.77169         4.30133         4.76601
   C       19.81499         4.51603         3.29812
   H        4.41137        -8.62345        -4.44924
   H        1.84800       -10.14382        -0.40518
   H       19.16618        13.75842         9.42558
   H       22.02762         9.70262         8.64106
   H        4.90707        -5.78923         1.16644
   H        7.13423        -5.33384        -2.08720
   H        7.09488        -1.13543         2.38309
   H       12.32649         1.27523        -0.13435
   H       10.71088         3.37327         4.15476
   H       15.88610         5.82224         1.53112
   H       18.67117         8.37961         5.14480
   H       15.89910        10.41747         6.96895
   H        8.27516        -4.01976        -3.64859
   H        9.60788        -4.78247        -2.73724
   H        9.71472        -2.05782        -4.12968
   H       11.98268        -3.69420        -2.83560
   H       11.29018        -2.18525        -2.19595
   H       12.19182        -2.16957        -3.73087
   H       10.95038        -4.73858        -5.02031
   H       11.14852        -3.17741        -5.84391
   H        9.54438        -3.94443        -5.77633
   H       18.86232         7.00928         2.85710
   H       17.58797         5.86523         2.45545
   H       19.32008         5.77261         4.96902
   H        8.56902         3.05997         5.04299
   H        6.80405         4.77320         5.18771
   H        5.17528         3.40200         1.44009
   H        6.96735         1.71457         1.27713
   H       11.26677         0.35121         4.53123
   H       11.30213        -1.07637         6.55694
   H        7.00128        -1.12257         6.60548
   H        6.96508         0.32068         4.59769
   H       16.39681         3.84797        -0.30009
   H       18.58047         2.85545         0.26164
   H       16.66343         0.25211         3.10546
   H       14.47474         1.25006         2.54509
   H       13.24176         5.93516        -0.09907
   H       12.91168         6.58982        -2.46153
   H       13.98411         2.61272        -3.71194
   H       14.33832         1.96852        -1.35565
   H       10.16697        -2.38690         8.25140
   H        8.53391        -2.95769         7.83221
   H        8.73037        -1.50950         8.83246
   H        3.84484         4.72965         3.96020
   H        4.36846         5.55962         2.48322
   H        5.00591         6.06774         4.06834
   H       19.53793         1.55219         3.01379
   H       19.87717         1.03713         1.35180
   H       19.08837        -0.08266         2.50052
   H       12.17977         4.76658        -5.03662
   H       13.89925         4.50962        -5.37289
   H       13.32499         6.11654        -4.86254
   H       17.19132         3.78505         3.98385
   H       17.07282         4.82613         5.43259
   H       18.28521         3.53551         5.36934
   H       19.31194         3.95528         2.49477
   H       20.38060         3.79779         3.91383
   H       20.54043         5.20121         2.83006
*
