# ORCA input file
# SeTIC.out: Geometry 45
! Engrad Keepdens
%maxcore 1000
%tddft
  nroots 3 
  # nroots is the number of states to be computed
  Iroot 1
  end
* xyz 0 1
   C        0.44082        -0.94684         0.44306
   C        1.68019        -1.58222         0.63180
   C        2.82066        -0.79409         0.62916
   C        2.72430         0.61694         0.44983
   C        1.49045         1.24462         0.21488
   C        0.35204         0.45459         0.20363
   C        4.28465        -1.21979         0.83306
   C        4.97308         0.13654         0.78664
   C        4.06071         1.15650         0.57852
   C       -1.11024         0.88329        -0.00595
   C       -1.82708        -0.42901         0.29128
   C       -0.91284        -1.45294         0.49016
   C        4.57169        -1.84097         2.21157
   C        4.76388        -2.14101        -0.30132
   C       -1.49148         2.03992         0.92278
   C       -1.42716         1.22696        -1.47567
   C       -3.16961        -0.83569         0.41771
   C       -3.35857        -2.19816         0.74236
  Se       -1.70505        -3.11996         0.85505
   S       -4.67632         0.01655         0.38494
   C       -5.54656        -1.42750         0.90678
   C       -4.69713        -2.53662         0.99050
   C        6.30766         0.57221         0.87443
   C        6.49941         1.96559         0.74487
  Se        4.84478         2.86851         0.50881
   S        7.81258        -0.26288         1.02121
   C        8.70724         1.24611         0.84822
   C        7.85085         2.34833         0.76389
   C        3.71676        -1.67404         3.30531
   C        4.07108        -2.16288         4.56794
   C        5.29111        -2.81595         4.78216
   C        6.14294        -2.98072         3.67902
   C        5.78824        -2.51206         2.41876
   C        4.49837        -3.51871        -0.24191
   C        5.02009        -4.38864        -1.19605
   C        5.82858        -3.91816        -2.24557
   C        6.04516        -2.53794        -2.32933
   C        5.51987        -1.66039        -1.37675
   C       -2.19708         1.85264         2.11797
   C       -2.57508         2.94734         2.90084
   C       -2.24063         4.25983         2.53454
   C       -1.48956         4.43330         1.36216
   C       -1.13275         3.34777         0.56474
   C       -0.60189         0.83168        -2.53258
   C       -0.96861         1.09033        -3.85698
   C       -2.16940         1.74013        -4.16680
   C       -2.99599         2.12730        -3.10037
   C       -2.63308         1.87784        -1.78048
   C       -6.93409        -1.43145         1.21981
   C       -7.78170        -0.40552         1.55752
   C       -7.56849         0.97857         1.96552
   C       -8.83966         1.70464         1.72569
   C       -9.85325         0.75805         1.45490
   C       -9.25892        -0.60568         1.39213
   C       -9.16474         3.06431         1.78991
   C      -10.49835         3.44100         1.58790
   C      -11.50020         2.49033         1.34742
   C      -11.18077         1.13022         1.27862
   O       -9.83572        -1.65540         1.19682
   C       -6.49182         1.47007         2.68411
   C       -6.32190         2.85271         3.00126
   C       -5.50397         0.61177         3.25947
   N       -6.12469         3.97155         3.24779
   N       -4.72218        -0.06353         3.79191
   C        5.69411        -3.33765         6.14278
   C        5.97548        -4.84507         6.15792
   C        6.44512        -4.87096        -3.24217
   C        5.42536        -5.50167        -4.19647
   C       -2.70831         5.45098         3.34126
   C       -2.26282         5.44431         4.80798
   C       -2.55717         2.06370        -5.59041
   C       -2.43915         3.55836        -5.90927
   C       10.13030         1.26009         0.84901
   C       11.00770         0.25099         0.53593
   C       10.86956        -1.00488        -0.19832
   C       12.01271        -1.86523         0.19814
   C       12.91098        -1.10300         0.97724
   C       12.37956         0.27760         1.14450
   C       12.31479        -3.20194        -0.08754
   C       13.49633        -3.74573         0.43119
   C       14.37149        -2.98292         1.21800
   C       14.08337        -1.64235         1.49412
   O       12.91205         1.20957         1.71035
   C        9.98052        -1.28103        -1.22317
   C        9.92290        -2.54135        -1.89512
   C        9.07745        -0.31398        -1.76628
   N        8.34856         0.43631        -2.27275
   N        9.82743        -3.55432        -2.45778
   H        1.73866        -2.65865         0.80593
   H        1.43116         2.32339         0.06146
   H       -5.05839        -3.52104         1.28965
   H        8.22263         3.36880         0.66785
   H        2.76593        -1.15405         3.17908
   H        3.38239        -2.02151         5.40540
   H        7.10211        -3.48901         3.80636
   H        6.46218        -2.68399         1.57902
   H        3.92609        -3.92379         0.59554
   H        4.82020        -5.46048        -1.10526
   H        6.66399        -2.13494        -3.13463
   H        5.74710        -0.59772        -1.46741
   H       -2.48546         0.85286         2.44385
   H       -3.15909         2.76730         3.80615
   H       -1.20127         5.44153         1.05107
   H       -0.60247         3.52415        -0.37297
   H        0.33639         0.31418        -2.32751
   H       -0.30436         0.77199        -4.66446
   H       -3.93976         2.63933        -3.30812
   H       -3.28891         2.20972        -0.97494
   H       -7.43589        -2.40294         1.12041
   H       -8.40998         3.82325         1.99101
   H      -10.76375         4.50017         1.62624
   H      -12.53220         2.81988         1.20660
   H      -11.93827         0.36695         1.08918
   H        4.90783        -3.09352         6.87514
   H        6.59802        -2.79883         6.47891
   H        5.08286        -5.41655         5.85709
   H        6.28362        -5.18449         7.15959
   H        6.78254        -5.11051         5.45824
   H        6.97581        -5.66848        -2.69380
   H        7.21896        -4.33713        -3.81506
   H        4.66905        -6.08596        -3.64745
   H        5.92247        -6.17926        -4.90952
   H        4.89060        -4.73010        -4.77372
   H       -3.81144         5.48119         3.29961
   H       -2.34789         6.37052         2.85210
   H       -2.61973         4.54420         5.33249
   H       -2.66930         6.31555         5.34497
   H       -1.16459         5.46870         4.89584
   H       -3.59513         1.73290        -5.76948
   H       -1.92598         1.48493        -6.28265
   H       -3.08530         4.15636        -5.24875
   H       -2.73600         3.77117        -6.94876
   H       -1.40552         3.91066        -5.76424
   H       10.60664         2.16587         1.24611
   H       11.65250        -3.82260        -0.68851
   H       13.74118        -4.78745         0.21170
   H       15.28116        -3.44068         1.61315
   H       14.74993        -1.01899         2.09392
*
