# ORCA input file
# SeTIC4Cl.out: Geometry 23
! Engrad Keepdens
%maxcore 1000
%tddft
  nroots 3 
  # nroots is the number of states to be computed
  Iroot 1
  end
* xyz 0 1
   C        0.78612        -0.35759         0.47975
   C        2.05516        -0.95743         0.50598
   C        3.16081        -0.13159         0.37709
   C        3.01016         1.27131         0.19609
   C        1.74391         1.87594         0.20631
   C        0.64046         1.05244         0.35687
   C        4.64960        -0.52275         0.39465
   C        5.29658         0.82270         0.07545
   C        4.33601         1.82147         0.02364
   C       -0.84216         1.45785         0.41569
   C       -1.50102         0.08883         0.51419
   C       -0.54839        -0.91741         0.53741
   C        5.12329        -0.89343         1.81143
   C        4.87157        -1.60541        -0.66020
   C       -1.02027         2.29340         1.69022
   C       -1.33453         2.11024        -0.87941
   C       -2.83093        -0.37851         0.52581
   C       -2.96442        -1.78734         0.53796
  Se       -1.27724        -2.65319         0.56425
   S       -4.37717         0.39509         0.49788
   C       -5.20174        -1.16689         0.45904
   C       -4.29123        -2.22920         0.48730
   C        6.61929         1.29352        -0.07161
   C        6.72818         2.69546        -0.24393
  Se        5.03410         3.55017        -0.22600
   S        8.16395         0.51011        -0.11955
   C        8.97697         2.07289        -0.34245
   C        8.04450         3.13073        -0.38250
   C        4.45589        -0.39928         2.93909
   C        4.96079        -0.61678         4.22132
   C        6.15028        -1.32788         4.42343
   C        6.81435        -1.82194         3.29004
   C        6.31451        -1.60704         2.00507
   C        4.61676        -2.95191        -0.35851
   C        4.62528        -3.92032        -1.36097
   C        4.89330        -3.58305        -2.69703
   C        5.18399        -2.24306        -2.98467
   C        5.17337        -1.26840        -1.98472
   C       -1.26746         1.66589         2.91789
   C       -1.23079         2.38610         4.11236
   C       -0.94987         3.75842         4.12351
   C       -0.74186         4.39035         2.88744
   C       -0.77414         3.67413         1.69081
   C       -0.71905         1.80474        -2.10024
   C       -1.25747         2.26013        -3.30273
   C       -2.42741         3.02960        -3.33125
   C       -3.03517         3.34035        -2.10536
   C       -2.50135         2.88632        -0.89931
   C       -6.62169        -1.19838         0.47808
   C       -7.49887        -2.20887         0.16154
   C       -7.38533        -3.46183        -0.57348
   C       -8.54639        -4.30023        -0.18217
   C       -9.44257        -3.51528         0.57206
   C       -8.87553        -2.15178         0.75744
   C       -8.85461        -5.63711        -0.44124
   C      -10.04652        -6.16660         0.07054
   C      -10.94019        -5.36507         0.81528
   C      -10.63442        -4.02313         1.06560
  Cl      -12.41354        -6.02861         1.43582
  Cl      -10.40540        -7.83464        -0.22312
   O       -9.39255        -1.21096         1.32188
   C       -6.50820        -3.75887        -1.60296
   C       -6.53376        -5.00822        -2.29700
   C       -5.58444        -2.80690        -2.13045
   N       -6.53542        -6.02642        -2.85734
   N       -4.84441        -2.03752        -2.58953
   C        6.68636        -1.57899         5.81388
   C        6.56374        -3.04318         6.25065
   C        4.81609        -4.62454        -3.78938
   C        3.37220        -4.91184        -4.23271
   C       -0.81056         4.52078         5.42029
   C        0.65516         4.68962         5.84654
   C       -3.00883         3.52416        -4.63413
   C       -2.88439         5.04064        -4.80561
   C       10.36238         2.35237        -0.45117
   C       11.49567         1.56523        -0.48354
   C       12.88066         2.02807        -0.59840
   C       13.74375         0.81899        -0.63908
   C       12.92875        -0.32631        -0.55835
   C       11.50658         0.08303        -0.45429
   C       15.12873         0.66008        -0.73632
   C       15.66342        -0.63532        -0.75846
   C       14.83003        -1.77271        -0.67937
   C       13.44438        -1.61244        -0.57761
  Cl       15.49948        -3.36923        -0.70542
  Cl       17.38085        -0.82093        -0.88734
   O       10.55113        -0.66939        -0.37304
   C       13.34845         3.33039        -0.66383
   C       14.73461         3.65242        -0.80485
   C       12.50511         4.48449        -0.60569
   N       11.84437         5.44049        -0.56137
   N       15.85492         3.93892        -0.92370
   H        2.16686        -2.03758         0.61829
   H        1.63191         2.95532         0.08473
   H       -4.60607        -3.27163         0.49848
   H        8.36234         4.16651        -0.50951
   H        3.53453         0.17194         2.81846
   H        4.42146        -0.21363         5.08229
   H        7.74962        -2.37483         3.41218
   H        6.86137        -1.99755         1.14569
   H        4.40346        -3.24526         0.67135
   H        4.40966        -4.96074        -1.10044
   H        5.42207        -1.95178        -4.01153
   H        5.38993        -0.23014        -2.24386
   H       -1.47593         0.59528         2.94421
   H       -1.42145         1.86783         5.05620
   H       -0.53292         5.46373         2.86401
   H       -0.59758         4.19443         0.74754
   H        0.18234         1.19056        -2.11481
   H       -0.76414         1.99683        -4.24208
   H       -3.95296         3.93432        -2.09476
   H       -3.00395         3.13501         0.03701
   H       -7.12094        -0.31543         0.89863
   H       -8.19998        -6.29145        -1.01236
   H      -11.31631        -3.39397         1.63934
   H        6.15201        -0.93371         6.52883
   H        7.74623        -1.27234         5.85730
   H        5.51148        -3.36852         6.25338
   H        6.97377        -3.19110         7.26235
   H        7.11365        -3.70796         5.56735
   H        5.28256        -5.55931        -3.43541
   H        5.40798        -4.28869        -4.65603
   H        2.76685        -5.28504        -3.39110
   H        3.33963        -5.66940        -5.03209
   H        2.88592        -3.99887        -4.61153
   H       -1.36782         3.99809         6.21439
   H       -1.27594         5.51495         5.31499
   H        1.13343         3.71162         6.01353
   H        0.73564         5.27404         6.77679
   H        1.23326         5.21143         5.06729
   H       -4.07228         3.23335        -4.68977
   H       -2.50779         3.01127        -5.46990
   H       -3.41017         5.57693        -4.00089
   H       -3.31646         5.37125        -5.76333
   H       -1.82941         5.35573        -4.77617
   H       10.52865         3.42685        -0.52810
   H       15.81415         1.50110        -0.80067
   H       12.78470        -2.47831        -0.51291
*
