# ORCA input file
# TPIC-4Cl.out: Geometry 73
! Engrad Keepdens
%maxcore 1000
%tddft
  nroots 3 
  # nroots is the number of states to be computed
  Iroot 1
  end
* xyz 0 1
   C        0.30221        -3.08066        -1.47869
   C       -0.38364        -3.73397        -0.46566
   C       -1.44103        -4.73401        -0.66978
   C       -1.91739        -5.16414         0.66948
   C       -1.19563        -4.46242         1.64871
   C       -0.21714        -3.55596         1.00585
   C       -2.89018        -6.08126         1.07702
   C       -3.11232        -6.26764         2.44730
   C       -2.37751        -5.55107         3.41678
   C       -1.40506        -4.63420         3.00785
  Cl       -2.66396        -5.79406         5.10719
  Cl       -4.31996        -7.40870         2.93346
   O        0.54348        -2.83374         1.62939
   C       -1.95015        -5.22486        -1.86094
   C       -2.99562        -6.19949        -1.90803
   C       -1.50461        -4.81949        -3.15744
   N       -3.84579        -6.99014        -1.96494
   N       -1.16360        -4.51367        -4.22614
   C        1.32052        -2.09854        -1.44969
   S        1.88573        -1.46352        -3.02054
   C        2.96212        -0.39219        -2.22436
   C        2.91047        -0.51860        -0.83239
   C        1.99791        -1.46965        -0.39063
   C       12.82537         7.70480        -5.55367
   C       13.87929         8.29580        -4.87883
   C       15.09387         8.85535        -5.47192
   C       15.89498         9.43862        -4.36322
   C       15.21334         9.22233        -3.15094
   C       13.94818         8.49591        -3.41397
   C       17.12611        10.09857        -4.33845
   C       17.63771        10.53354        -3.10772
   C       16.93006        10.32158        -1.90410
   C       15.70371         9.65081        -1.92901
  Cl       17.55976        10.87815        -0.39046
  Cl       19.16950        11.34146        -3.08842
   O       13.13981         8.15013        -2.56868
   C       15.48367         8.84563        -6.80236
   C       16.68831         9.45837        -7.26938
   C       14.73490         8.21134        -7.84232
   N       17.65563         9.94983        -7.68685
   N       14.14720         7.69549        -8.70325
   C        3.90950         0.62891        -2.60478
   C        4.44705         1.16259        -1.39774
   C        3.87956         0.44576        -0.16321
   C        4.32885         1.08609        -3.86608
   C        5.30949         2.06311        -3.90721
   C        5.81967         2.61577        -2.69940
   C        5.37909         2.18565        -1.43891
   C        6.05404         2.64782        -5.13737
   C        6.97152         3.65956        -4.44623
   C        6.82474         3.58017        -3.06631
   C        7.99945         4.57264        -4.78339
   C        8.62851         5.12999        -3.63069
   S        7.92127         4.56301        -2.13737
   N        8.65508         5.00922        -5.91951
   C        9.69850         5.82440        -5.50170
   C        9.70850         5.90485        -4.07899
   C       10.76571         6.49604        -6.09439
   C       11.62769         7.07956        -5.13699
   S       11.05110         6.80442        -3.46990
   C        3.16310         1.42502         0.78824
   C        8.19013         4.88230        -7.29386
   C        7.17151         5.95401        -7.66497
   C        4.94060        -0.34685         0.62470
   C        6.86141         1.49725        -5.76931
   C        5.10289         3.37038        -6.10803
   C        6.30207        -0.34103         0.31200
   C        7.23213        -0.95787         1.15798
   C        6.83387        -1.59952         2.33478
   C        5.45640        -1.66468         2.60589
   C        4.52970        -1.05297         1.76957
   C        1.81314         1.75129         0.61074
   C        1.14196         2.54841         1.54043
   C        1.79289         3.04141         2.67993
   C        3.16191         2.77133         2.81501
   C        3.83697         1.97942         1.88689
   C        4.23525         4.34656        -5.59366
   C        3.41875         5.10117        -6.43450
   C        3.42817         4.90330        -7.82425
   C        4.28080         3.91493        -8.33159
   C        5.11063         3.16602        -7.49338
   C        8.24814         1.39145        -5.59955
   C        8.95327         0.29099        -6.09314
   C        8.30564        -0.74459        -6.77631
   C        6.91706        -0.63559        -6.95258
   C        6.21010         0.45885        -6.45764
   C        7.83569        -2.19744         3.29328
   C        7.93748        -3.72345         3.20891
   C        1.05377         3.83440         3.73158
   C        1.20210         5.35076         3.57400
   C        9.07967        -1.90990        -7.34464
   C        9.63179        -1.62001        -8.74973
   C        2.59430         5.75755        -8.75121
   C        3.44065         6.74495        -9.56618
   H        0.00959        -3.35439        -2.49213
   H       -3.48828        -6.66178         0.38077
   H       -0.82188        -4.06725         3.73453
   H        1.77422        -1.72560         0.63972
   H       12.91280         7.68023        -6.64009
   H       17.70870        10.29533        -5.23500
   H       15.14608         9.46389        -1.01052
   H        3.90400         0.65797        -4.77407
   H        5.78181         2.62322        -0.52405
   H       10.97518         6.55811        -7.16264
   H        7.76651         3.87539        -7.41377
   H        9.07534         4.94186        -7.94464
   H        6.27790         5.88407        -7.02799
   H        6.84549         5.82819        -8.70786
   H        7.61222         6.95769        -7.55295
   H        6.65967         0.16828        -0.58221
   H        8.29475        -0.90907         0.90188
   H        5.10561        -2.17584         3.50705
   H        3.47378        -1.08020         2.04368
   H        1.26486         1.34648        -0.24173
   H        0.07974         2.76309         1.39188
   H        3.70397         3.15668         3.68346
   H        4.88895         1.74391         2.05342
   H        4.21151         4.53098        -4.51675
   H        2.76053         5.86038        -6.00380
   H        4.30546         3.72470        -9.40879
   H        5.77513         2.42408        -7.93520
   H        8.79232         2.16442        -5.05773
   H       10.03289         0.23582        -5.92779
   H        6.37926        -1.42848        -7.48030
   H        5.13187         0.50334        -6.61683
   H        7.55462        -1.90943         4.32109
   H        8.82509        -1.75005         3.10668
   H        6.96758        -4.19966         3.42382
   H        8.66953        -4.11004         3.93434
   H        8.25213        -4.04457         2.20343
   H        1.42237         3.53517         4.72720
   H       -0.01419         3.56271         3.70354
   H        2.25743         5.65648         3.65299
   H        0.63540         5.88810         4.34964
   H        0.83091         5.68503         2.59200
   H        8.42974        -2.80012        -7.37434
   H        9.91475        -2.15808        -6.66905
   H        8.81853        -1.37214        -9.44971
   H       10.17847        -2.48734        -9.15315
   H       10.32264        -0.76199        -8.73137
   H        1.84536         6.31090        -8.16177
   H        2.02988         5.10633        -9.44155
   H        4.00459         7.42298        -8.90555
   H        2.80842         7.35981       -10.22682
   H        4.17096         6.21370       -10.19723
*
