# ORCA input file
# TPIC-4F.out: Geometry 135
! Engrad Keepdens
%maxcore 1000
%tddft
  nroots 3 
  # nroots is the number of states to be computed
  Iroot 1
  end
* xyz 0 1
   C        0.46813        -3.24243        -1.29835
   C       -0.26371        -3.93946        -0.35086
   C       -1.27809        -4.96073        -0.65099
   C       -1.80053        -5.47018         0.64180
   C       -1.14393        -4.79954         1.68900
   C       -0.17250        -3.82142         1.13292
   C       -2.76777        -6.43950         0.94732
   C       -3.03763        -6.69918         2.28721
   C       -2.37009        -6.01996         3.32214
   C       -1.41016        -5.05630         3.03015
   F       -2.68148        -6.32292         4.57902
   F       -3.94929        -7.61236         2.61749
   O        0.53558        -3.09214         1.80667
   C       -1.71365        -5.41028        -1.88685
   C       -2.72029        -6.41541        -2.03391
   C       -1.21802        -4.93213        -3.13942
   N       -3.53696        -7.23006        -2.17670
   N       -0.83296        -4.56574        -4.17338
   C        1.46680        -2.23827        -1.21159
   S        2.15353        -1.68242        -2.76558
   C        3.19199        -0.59068        -1.94928
   C        3.02007        -0.63108        -0.56183
   C        2.06536        -1.55505        -0.13691
   C       12.90723         7.75125        -5.43227
   C       14.00235         8.37653        -4.86884
   C       15.11761         8.97329        -5.60175
   C       15.96185         9.68782        -4.61152
   C       15.44436         9.45585        -3.32165
   C       14.22223         8.61218        -3.42257
   C       17.10178        10.48775        -4.76157
   C       17.67826        11.02919        -3.61584
   C       17.15165        10.78902        -2.33395
   C       16.02482         9.98725        -2.17491
   F       17.75237        11.34963        -1.28566
   F       18.75997        11.79712        -3.71829
   O       13.54118         8.21991        -2.49129
   C       15.41036         8.86138        -6.95247
   C       16.56031         9.46304        -7.55150
   C       14.62147         8.09791        -7.86912
   N       17.49229         9.93905        -8.05753
   N       13.98988         7.47610        -8.62206
   C        4.21766         0.36345        -2.31122
   C        4.72512         0.90775        -1.09803
   C        3.92837         0.38908         0.11523
   C        4.70215         0.78368        -3.56236
   C        5.72905         1.71474        -3.59044
   C        6.26203         2.22908        -2.37294
   C        5.75198         1.84068        -1.12308
   C        6.40883         2.38181        -4.81604
   C        7.36780         3.34234        -4.10787
   C        7.28511         3.18757        -2.72955
   C        8.33518         4.31996        -4.44440
   C        9.01694         4.83965        -3.30366
   S        8.40323         4.16301        -1.80929
   N        8.88247         4.85696        -5.59552
   C        9.90953         5.70091        -5.19831
   C       10.03063         5.69695        -3.77827
   C       10.87451         6.47353        -5.83810
   C       11.78366         7.05473        -4.92819
   S       11.37668         6.65531        -3.23842
   C        3.11047         1.57882         0.66948
   C        8.26051         4.88290        -6.91489
   C        7.21006         5.98213        -7.02895
   C        4.75277        -0.28796         1.21194
   C        7.15912         1.34705        -5.67567
   C        5.35810         3.18229        -5.61919
   C        6.10678        -0.60402         1.06621
   C        6.81384        -1.20751         2.11135
   C        6.19302        -1.51644         3.32747
   C        4.82201        -1.24175         3.44982
   C        4.11517        -0.63844         2.41397
   C        1.88382         1.94048         0.09780
   C        1.14909         3.01318         0.60517
   C        1.60470         3.75433         1.70317
   C        2.85440         3.41648         2.24273
   C        3.59752         2.35080         1.73266
   C        4.59011         4.14586        -4.94636
   C        3.63756         4.90634        -5.62201
   C        3.40608         4.72726        -6.99446
   C        4.17438         3.76509        -7.66135
   C        5.13960         3.00926        -6.99005
   C        8.53946         1.43216        -5.90526
   C        9.19678         0.51915        -6.73285
   C        8.50834        -0.52694        -7.36007
   C        7.13117        -0.62744        -7.11271
   C        6.47239         0.28614        -6.28989
   C        6.95725        -2.15544         4.46118
   C        6.91026        -3.68615         4.42535
   C        0.77603         4.87733         2.28186
   C        1.18815         6.27194         1.79234
   C        9.21518        -1.48122        -8.29524
   C        9.55323        -0.85170        -9.65550
   C        2.40922         5.57636        -7.74728
   C        3.09028         6.62093        -8.64025
   H        0.24729        -3.50951        -2.33157
   H       -3.32090        -7.00213         0.19976
   H       -0.88658        -4.52232         3.82482
   H        1.77823        -1.76682         0.88955
   H       12.87690         7.76476        -6.52144
   H       17.56113        10.71501        -5.72119
   H       15.60922         9.78837        -1.18568
   H        4.25555         0.39215        -4.47587
   H        6.14009         2.27667        -0.20083
   H       10.98350         6.60467        -6.91515
   H        7.82342         3.89333        -7.10475
   H        9.06394         5.02698        -7.65302
   H        6.39538         5.81825        -6.30889
   H        6.76867         5.99331        -8.03671
   H        7.66206         6.96771        -6.83332
   H        6.62652        -0.37033         0.13631
   H        7.87616        -1.43073         1.97799
   H        4.30377        -1.49152         4.38027
   H        3.05729        -0.40780         2.55238
   H        1.48366         1.36804        -0.74066
   H        0.18616         3.26751         0.15385
   H        3.24551         3.98111         3.09377
   H        4.55341         2.09384         2.19093
   H        4.74667         4.30773        -3.87765
   H        3.05452         5.64967        -5.07153
   H        4.01458         3.59239        -8.72959
   H        5.72326         2.27972        -7.55055
   H        9.12560         2.22092        -5.43805
   H       10.27332         0.63131        -6.89016
   H        6.55893        -1.43536        -7.57643
   H        5.39713         0.17691        -6.15289
   H        6.54558        -1.79866         5.41976
   H        8.00595        -1.81719         4.42826
   H        5.87477        -4.05211         4.50920
   H        7.49399        -4.12207         5.25068
   H        7.32204        -4.07171         3.47914
   H        0.84382         4.84211         3.38276
   H       -0.28404         4.70381         2.03188
   H        2.24229         6.48155         2.03451
   H        0.57076         7.05154         2.26459
   H        1.07029         6.35763         0.70009
   H        8.58434        -2.37156        -8.44871
   H       10.14340        -1.83927        -7.81814
   H        8.64271        -0.49484       -10.16311
   H       10.05155        -1.57927       -10.31568
   H       10.22510         0.01309        -9.53861
   H        1.73817         6.07970        -7.03185
   H        1.77040         4.92488        -8.36886
   H        3.71282         7.30429        -8.04030
   H        2.34981         7.22463        -9.18882
   H        3.74712         6.13709        -9.38121
*
