# ORCA input file
# Y1.out: Geometry 44
! Engrad Keepdens
%maxcore 1000
%tddft
  nroots 3 
  # nroots is the number of states to be computed
  Iroot 1
  end
* xyz 0 1
   C       -0.66461        -0.05906        -0.20158
   O       -1.16256         0.83142         0.45429
   C        0.78821        -0.30829        -0.42851
   C        1.87367         0.37188         0.10918
   C        3.15932        -0.06439        -0.23206
   C        3.33123        -1.15006        -1.10336
   C        2.23600        -1.83104        -1.65020
   C        0.94972        -1.41055        -1.29639
   C       -0.39192        -1.88837        -1.70469
   C       -0.66663        -2.68787        -2.80256
   C       -1.97401        -2.76597        -3.37392
   N       -3.01707        -2.80251        -3.88443
   C        0.33452        -3.44504        -3.48193
   N        1.12369        -4.11310        -4.01428
   C       -1.36713        -1.19776        -0.87970
   C       -2.62842        -1.54338        -0.44576
   C       -3.28654        -2.79981        -0.41095
   S       -2.47254        -4.32010        -0.81043
   C       -3.81312        -5.24045        -0.22877
   C       -4.85238        -4.40529         0.24816
   C       -4.54955        -3.04013         0.15341
   S       -6.22767        -5.31737         0.87401
   C       -5.39446        -6.80399         0.48702
   C       -4.12639        -6.60552        -0.08050
   N       -3.55086        -7.82167        -0.40160
   C       -2.36362        -7.82872        -1.26070
   C       -0.97857        -7.78368        -0.55685
   C        0.02865        -7.00729        -1.42593
   C        0.16811        -7.49108        -2.86930
   C       -1.07757        -7.23903         0.87708
   C        0.23357        -7.21064         1.66110
   C        0.04044        -6.72000         3.09908
   C        1.34928        -6.54003         3.86524
   C       -4.45037        -8.83247        -0.02890
   C       -5.62847        -8.19051         0.51034
   C       -6.77116        -8.95692         0.88044
   N       -7.97803        -8.60449         1.35651
   N       -8.60881        -9.76841         1.47999
   C      -10.00513        -9.86934         1.86748
   C      -11.01609        -9.94058         0.69690
   C      -10.52211       -10.82486        -0.46715
   C       -9.68027       -10.06598        -1.49624
   C      -12.34568       -10.41801         1.30430
   C      -13.55427       -10.43727         0.36847
   C      -14.82882       -10.91534         1.06873
   C      -16.00090       -11.14164         0.11585
   N       -7.92802       -10.85443         1.12906
   C       -6.75066       -10.36285         0.72410
   C       -5.59460       -11.01718         0.22671
   C       -4.41041       -10.27134        -0.10946
   N       -3.42317       -11.20310        -0.47306
   C       -1.97842       -11.09783        -0.62728
   C       -1.10342       -11.12252         0.65353
   C       -1.65613       -11.98536         1.80455
   C       -2.61792       -11.24484         2.73308
   C        0.29266       -11.56903         0.18466
   C        1.43114       -11.49026         1.19984
   C        2.73417       -12.04626         0.62101
   C        3.87406       -12.13162         1.63234
   C       -3.98020       -12.46471        -0.39546
   C       -5.31594       -12.37834         0.01701
   S       -6.10481       -13.92636         0.18048
   C       -4.59742       -14.71635        -0.27541
   C       -3.55364       -13.80181        -0.54537
   S       -2.05978       -14.62055        -0.84948
   C       -2.82824       -16.19097        -0.58354
   C       -4.19603       -16.06116        -0.34626
   C       -2.04938       -17.38490        -0.58180
   C       -0.73020       -17.52400        -0.23049
   C        0.17531       -16.69487         0.56180
   C       -0.16668       -15.83904         1.59398
   C        0.79637       -15.11115         2.35638
   N        1.53704       -14.48002         2.99219
   C       -1.50613       -15.65905         2.06102
   N       -2.56638       -15.50323         2.51047
   C        1.55493       -17.12517         0.23344
   C        2.80132       -16.58805         0.57498
   C        3.95429       -17.23561         0.11522
   C        3.88014       -18.40108        -0.66167
   C        2.63688       -18.94885        -0.99659
   C        1.49310       -18.30286        -0.54325
   C        0.06951       -18.66846        -0.78271
   O       -0.35634       -19.65279        -1.34905
   H        1.70523         1.22054         0.77544
   H        4.03327         0.44421         0.18058
   H        4.33948        -1.47932        -1.36564
   H        2.39928        -2.67481        -2.31842
   H       -3.13776        -0.74636         0.11064
   H       -5.19288        -2.22964         0.49593
   H       -2.46383        -6.93594        -1.89638
   H       -2.44324        -8.67687        -1.95117
   H       -0.59596        -8.81162        -0.48170
   H        1.01474        -7.06766        -0.94114
   H       -0.24421        -5.93781        -1.42501
   H        0.47815        -8.54949        -2.90815
   H        0.92159        -6.89307        -3.40241
   H       -0.76946        -7.39110        -3.43801
   H       -1.81024        -7.84547         1.43516
   H       -1.49035        -6.21842         0.85928
   H        0.95937        -6.55118         1.15777
   H        0.69163        -8.21700         1.66752
   H       -0.61846        -7.42133         3.64034
   H       -0.50526        -5.75930         3.07634
   H        1.89261        -7.49351         3.96814
   H        1.16955        -6.14519         4.87787
   H        2.01829        -5.83486         3.34440
   H      -10.21826        -9.00956         2.51566
   H      -10.08034       -10.79030         2.46265
   H      -11.16153        -8.91580         0.31103
   H      -11.38948       -11.26540        -0.98229
   H       -9.94778       -11.67145        -0.05997
   H      -10.29946        -9.33923        -2.04865
   H       -9.23149       -10.75123        -2.23207
   H       -8.86074        -9.50043        -1.03135
   H      -12.58399        -9.78224         2.17622
   H      -12.19799       -11.43591         1.71113
   H      -13.35509       -11.10204        -0.48863
   H      -13.71697        -9.43225        -0.06272
   H      -15.11258       -10.18737         1.84918
   H      -14.60750       -11.85572         1.60563
   H      -16.28785       -10.21111        -0.40204
   H      -16.88904       -11.51552         0.64960
   H      -15.74358       -11.88139        -0.65991
   H       -1.73162       -10.22241        -1.23046
   H       -1.69703       -11.95654        -1.25347
   H       -1.02593       -10.09131         1.03285
   H       -0.80956       -12.35163         2.40361
   H       -2.13694       -12.89006         1.41281
   H       -2.09633       -10.43198         3.26622
   H       -3.04050       -11.92555         3.48769
   H       -3.45834       -10.79375         2.18731
   H        0.57765       -10.98220        -0.70854
   H        0.20955       -12.61366        -0.16889
   H        1.17686       -12.06298         2.10453
   H        1.57854       -10.44492         1.52912
   H        3.04037       -11.43245        -0.24548
   H        2.53107       -13.05440         0.21428
   H        4.12799       -11.13861         2.03946
   H        4.78592       -12.54652         1.17282
   H        3.59406       -12.77810         2.47817
   H       -4.83899       -16.91850        -0.14730
   H       -2.52381       -18.29125        -0.98020
   H        2.89172       -15.67869         1.16579
   H        4.93010       -16.81628         0.37126
   H        4.79754       -18.88153        -1.00860
   H        2.54517       -19.85811        -1.59381
*
