# ORCA input file
# Y2.out: Geometry 28
! Engrad Keepdens
%maxcore 1000
%tddft
  nroots 3 
  # nroots is the number of states to be computed
  Iroot 1
  end
* xyz 0 1
   C        4.82402         1.98656        -0.92646
   O        5.93157         2.44528        -1.11345
   C        3.50424         2.60185        -1.20098
   C        3.03899         3.77639        -1.72452
   S        1.30401         3.78766        -1.71473
   C        1.20542         2.21048        -0.99684
   C        2.46596         1.69954        -0.78609
   C        3.07311         0.49685        -0.18881
   C        2.37557        -0.42636         0.57687
   C        0.94906        -0.38913         0.63306
   N       -0.21277        -0.34731         0.64076
   C        3.01685        -1.36752         1.43036
   N        3.54610        -2.11701         2.14453
   C        4.50856         0.60184        -0.40176
   C        5.57251        -0.27015        -0.33522
   C        5.69257        -1.68066        -0.29603
   S        7.32394        -2.32501        -0.02106
   C        6.77173        -3.94168        -0.27235
   C        5.38497        -3.97412        -0.56491
   C        4.78187        -2.70962        -0.57000
   S        4.78321        -5.60825        -0.85365
   C        6.39462        -6.23078        -0.58361
   C        7.33423        -5.23362        -0.28771
   N        8.57418        -5.79974        -0.06737
   C        9.62517        -4.98029         0.52995
   C       10.38743        -4.12056        -0.47647
   C        8.45533        -7.18761        -0.24949
   C        7.07350        -7.46516        -0.54987
   C        6.62692        -8.80727        -0.71827
   N        5.40019        -9.31456        -0.91895
   N        5.61568       -10.62511        -0.96163
   C        4.51178       -11.57607        -1.00298
   C        4.06414       -11.98959         0.39837
   N        6.87003       -11.03008        -0.79492
   C        7.54799        -9.88213        -0.63965
   C        8.93421        -9.62480        -0.43260
   C        9.40374        -8.27451        -0.23285
   N       10.79970        -8.33221        -0.11955
   C       11.80712        -7.30630         0.11551
   C       12.19492        -7.17422         1.58861
   C       11.18943        -9.65150        -0.22772
   C       10.06374       -10.46589        -0.42224
   S       10.46042       -12.15522        -0.64094
   C       12.17279       -11.75094        -0.46631
   C       12.40399       -10.37043        -0.24653
   S       14.09321        -9.99782        -0.09481
   C       14.51200       -11.70908        -0.34114
   C       13.35317       -12.49382        -0.51560
   C       15.79669       -12.30486        -0.40306
   C       17.08566       -11.82324        -0.28716
   C       18.31204       -12.62505        -0.38435
   C       18.46598       -13.96805        -0.68470
   C       19.76562       -14.55910        -0.72984
   N       20.82803       -15.02932        -0.76438
   C       17.39238       -14.85792        -0.99069
   N       16.53854       -15.60410        -1.24841
   C       19.43620       -11.71295        -0.12291
   C       20.80839       -11.77911        -0.02666
   S       21.46799       -10.20685         0.30083
   C       19.90529        -9.45292         0.31391
   C       18.93350       -10.38528         0.07847
   C       17.45720       -10.40278        -0.01948
   O       16.69822        -9.45517         0.09585
   H        3.60569         4.62486        -2.10415
   H        0.23592         1.77103        -0.77453
   H        6.52634         0.26576        -0.43834
   H        3.73900        -2.52298        -0.81725
   H       10.29075        -5.62653         1.10558
   H        9.13728        -4.32868         1.27261
   H       11.15107        -3.52325         0.04603
   H        9.71249        -3.42399        -0.99588
   H       10.88487        -4.72861        -1.24660
   H        4.86403       -12.44151        -1.58100
   H        3.70126       -11.08404        -1.55717
   H        4.89705       -12.45529         0.94656
   H        3.24009       -12.71665         0.33577
   H        3.71131       -11.11593         0.96696
   H       11.45845        -6.36579        -0.31311
   H       12.69158        -7.58469        -0.47761
   H       11.31589        -6.98464         2.22341
   H       12.91133        -6.35063         1.73053
   H       12.67079        -8.09849         1.94771
   H       13.41523       -13.56895        -0.69066
   H       15.71096       -13.37685        -0.58849
   H       21.46940       -12.63604        -0.13228
   H       19.79391        -8.38630         0.50150
*
