# ORCA input file
# Y5.out: Geometry 23
! Engrad Keepdens
%maxcore 1000
%tddft
  nroots 3 
  # nroots is the number of states to be computed
  Iroot 1
  end
* xyz 0 1
   C        0.76977        -1.75245        -1.34083
   O        1.24595        -1.57613        -2.44432
   C        1.49621        -1.92168        -0.05351
   C        2.86792        -1.97264         0.16100
   C        3.32491        -2.13666         1.47316
   C        2.41107        -2.23529         2.53110
   C        1.02827        -2.17980         2.31484
   C        0.56390        -2.03143         1.00272
   C       -0.80636        -1.89844         0.44334
   C       -1.94894        -1.58564         1.16282
   C       -3.12015        -1.07338         0.52429
   N       -4.05023        -0.60604         0.00701
   C       -1.99392        -1.62101         2.58964
   N       -2.04122        -1.67553         3.74999
   C       -0.68161        -1.90323        -1.00289
   C       -1.55795        -2.10232        -2.04178
   C       -2.83594        -2.70316        -2.13698
   S       -3.47587        -3.83302        -0.93077
   C       -4.84484        -4.16990        -1.93568
   C       -4.79717        -3.43512        -3.14170
   C       -3.67018        -2.60445        -3.26725
   C       -3.39770        -1.66669        -4.40793
   C       -3.53516        -0.19063        -4.00416
   S       -6.12108        -3.82192        -4.24376
   C       -6.71142        -4.98732        -3.09028
   C       -5.96628        -5.02589        -1.90204
   N       -6.48290        -5.98931        -1.04945
   C       -5.57273        -6.62928        -0.09597
   C       -4.66529        -7.65709        -0.76333
   C       -7.56058        -6.59287        -1.71099
   C       -7.69353        -5.99990        -3.00361
   C       -8.58550        -6.54866        -3.98271
   N       -8.74365        -6.14535        -5.23636
   S       -9.79199        -7.20710        -5.95481
   N      -10.06346        -8.21040        -4.66521
   C       -9.34959        -7.73935        -3.65116
   C       -9.30754        -8.24090        -2.30809
   C       -8.47116        -7.63226        -1.31817
   N       -8.77181        -8.20294        -0.08188
   C       -8.37393        -7.79571         1.26165
   C       -7.42246        -8.78857         1.92576
   C       -9.73574        -9.17305        -0.28179
   C      -10.06382        -9.23153        -1.64567
   S      -11.28126       -10.42209        -2.01196
   C      -11.37233       -10.83550        -0.29699
   C      -10.51589       -10.05400         0.50385
   S      -10.72629       -10.42414         2.18073
   C      -11.91619       -11.67972         1.79242
   C      -12.15305       -11.77939         0.41236
   C      -13.17322       -12.65898        -0.25805
   C      -12.57996       -13.59221        -1.32320
   C      -12.55344       -12.31941         2.90097
   C      -13.05018       -13.58686         3.06213
   C      -12.85895       -14.84815         2.35606
   C      -11.76303       -15.20629         1.59309
   C      -11.65277       -16.47396         0.94165
   N      -11.55123       -17.48677         0.38062
   C      -10.60931       -14.37414         1.45776
   N       -9.64237       -13.73914         1.34817
   C      -13.93353       -15.77031         2.80278
   C      -14.31626       -17.04193         2.35952
   C      -15.35744       -17.69567         3.03076
   C      -16.00093       -17.11425         4.13333
   C      -15.62541       -15.84302         4.57857
   C      -14.60699       -15.18525         3.89812
   C      -14.06399       -13.82361         4.14739
   O      -14.40307       -13.04049         5.01007
   H        3.55205        -1.88090        -0.68526
   H        4.39680        -2.18628         1.67980
   H        2.78469        -2.36312         3.54966
   H        0.34629        -2.25956         3.15931
   H       -1.11937        -1.82456        -3.00896
   H       -4.08592        -1.89978        -5.23526
   H       -2.38063        -1.85129        -4.79581
   H       -4.54361         0.02031        -3.61647
   H       -3.34132         0.46653        -4.86536
   H       -2.82242         0.06948        -3.20868
   H       -6.14848        -7.08760         0.70632
   H       -4.98322        -5.82794         0.37421
   H       -4.00888        -8.13045        -0.01695
   H       -4.03153        -7.18161        -1.52679
   H       -5.26163        -8.44518        -1.24872
   H       -9.29283        -7.69553         1.86206
   H       -7.94672        -6.78703         1.19749
   H       -7.92705        -9.74273         2.13678
   H       -7.04997        -8.38223         2.87880
   H       -6.56155        -9.00864         1.27902
   H      -13.91363       -11.99667        -0.74239
   H      -13.72340       -13.23924         0.49375
   H      -11.82577       -14.26891        -0.90163
   H      -12.08814       -13.02478        -2.12714
   H      -13.37217       -14.20503        -1.77875
   H      -12.74419       -11.67880         3.77392
   H      -13.83343       -17.52388         1.51167
   H      -15.67631       -18.68015         2.68159
   H      -16.79818       -17.65967         4.64325
   H      -16.10895       -15.36167         5.43062
*
