# ORCA input file
# BT6IC-HD-4Cl.out: Geometry 49
! B3LYP def2-TZVP def2/J RIJCOSX Grid4 TightSCF

%maxcore 6000
%tddft
  maxdim 5
  nroots 3
  dosoc true
  end
%pal
  nprocs 6
  end


* xyz 0 1
   C        3.28537         6.67626        -0.29350
   O        4.26803         7.38619        -0.35043
   C        1.86343         7.10164        -0.33313
   C        1.35529         8.38498        -0.46032
   C       -0.03336         8.55020        -0.49890
   C       -0.87818         7.42193        -0.41475
   C       -0.35319         6.13102        -0.25930
   C        1.03265         5.96897        -0.21266
   C        1.88304         4.76988         0.00656
   C        1.42866         3.56444         0.51665
   C        2.31219         2.56557         1.02067
   N        3.01607         1.74930         1.45557
   C        0.04224         3.25488         0.67175
   N       -1.07918         2.97165         0.78761
   C        3.26297         5.17586        -0.20239
   C        4.48091         4.54320        -0.32426
   C        4.91899         3.21176        -0.54873
   S        6.53938         2.85520         0.08768
   C        6.43645         1.23108        -0.47890
   C        5.22883         0.99556        -1.17226
   C        4.36016         2.11089        -1.22765
   C        3.10591         2.18720        -2.05593
   C        2.19012         0.96080        -2.00020
   S        5.11123        -0.66383        -1.77776
   C        6.67433        -1.01234        -1.08920
   C        7.24510         0.07656        -0.42277
   N        8.50884        -0.25261         0.04127
   C        9.46536         0.83882         0.22118
   C       10.32562         1.15126        -1.01997
   C        8.75601        -1.58564        -0.32414
   C        7.61541        -2.06276        -1.04790
   C        7.57857        -3.37249        -1.62088
   N        6.58253        -3.91633        -2.30699
   S        7.08500        -5.42601        -2.76384
   N        8.59591        -5.40728        -2.08609
   C        8.73918        -4.22866        -1.49459
   C        9.85188        -3.77709        -0.71356
   C        9.85023        -2.49165        -0.07124
   N       10.97020        -2.43047         0.76259
   C       11.38599        -1.44894         1.76047
   C       12.45919        -0.42607         1.31998
   C       11.65978        -3.62437         0.64109
   C       11.01507        -4.45193        -0.28933
   S       11.82964        -5.97406        -0.54591
   C       13.04719        -5.50856         0.64951
   C       12.79237        -4.24099         1.21926
   S       13.96476        -3.85753         2.42383
   C       14.83100        -5.38710         2.12949
   C       14.22429        -6.14625         1.10652
   C       14.83831        -7.32574         0.40147
   C       15.22245        -6.99356        -1.05166
   C       16.04762        -5.50167         2.85162
   C       16.81742        -6.58786         3.21581
   C       18.16802        -6.50490         3.77154
   C       18.97412        -5.38421         3.89010
   C       18.61551        -4.08124         3.42218
   N       18.37204        -3.00793         3.04655
   C       20.26162        -5.42460         4.50986
   N       21.30344        -5.43798         5.02462
   C       18.57093        -7.87561         4.15992
   C       19.77174        -8.38091         4.66253
   C       19.88698        -9.75788         4.88297
   C       18.80920       -10.63215         4.62070
   C       17.59997       -10.12207         4.13349
   C       17.50409        -8.75795         3.90177
   C       16.35330        -8.00384         3.32991
   O       15.25453        -8.45931         3.07707
  Cl       18.97441       -12.33468         4.88351
  Cl       -0.69375        10.14323        -0.65005
   C       13.08272         0.23571         2.55997
   C       12.09648         0.98085         3.46215
   C       13.53723        -0.99377         0.39506
   C        9.51034         1.18197        -2.32144
   C       10.36402         1.31429        -3.58282
   C       11.06684         2.46984        -0.77067
  Cl       -2.59708         7.61383        -0.49317
  Cl       21.39354       -10.36765         5.47966
   H        2.02176         9.24559        -0.52851
   H       -1.04638         5.29701        -0.17658
   H        5.29978         5.27258        -0.23352
   H        3.42606         2.35423        -3.10166
   H        2.54024         3.08377        -1.78105
   H        2.65854         0.07505        -2.45365
   H        1.26509         1.15912        -2.56096
   H        1.91908         0.70377        -0.96698
   H       10.10001         0.65300         1.09116
   H        8.87221         1.72492         0.48600
   H       11.07009         0.34150        -1.12427
   H       11.77852        -2.02965         2.61113
   H       10.48846        -0.94322         2.13730
   H       11.95501         0.36776         0.75780
   H       14.12944        -8.17039         0.43634
   H       15.72539        -7.66435         0.94004
   H       14.35471        -6.68521        -1.65351
   H       15.67780        -7.87120        -1.53647
   H       15.95479        -6.17154        -1.08139
   H       16.42411        -4.53317         3.18832
   H       20.62874        -7.75234         4.88956
   H       16.75930       -10.78414         3.92113
   H       13.85596         0.94021         2.21187
   H       13.61915        -0.53298         3.14480
   H       11.51201         1.72187         2.89087
   H       12.62693         1.52618         4.25755
   H       11.38071         0.30419         3.95661
   H       14.17512        -1.72647         0.90926
   H       14.18936        -0.17780         0.04913
   H       13.10716        -1.47690        -0.49472
   H        8.77693         2.00615        -2.26809
   H        8.92202         0.25550        -2.40251
   H       10.90735         2.27102        -3.62764
   H        9.73635         1.24961        -4.48485
   H       11.11319         0.50673        -3.64138
   H       10.35388         3.31211        -0.76433
   H       11.81653         2.66937        -1.54900
   H       11.59286         2.46888         0.19719
*
