# ORCA input file
# BTP-4Cl.out: Geometry 28
! B3LYP def2-TZVP def2/J RIJCOSX Grid4 TightSCF

%maxcore 6000
%tddft
  maxdim 5
  nroots 3
  dosoc true
  end
%pal
  nprocs 6
  end


* xyz 0 1
   C        4.42603         2.78642         0.99198
   O        5.18529         2.05917         0.37293
   C        3.45818         3.72635         0.38338
   C        3.22616         3.94479        -0.96465
   C        2.25667         4.88525        -1.32620
  Cl        1.94216         5.18104        -3.00280
   C        1.54814         5.57953        -0.32166
  Cl        0.34360         6.74647        -0.74891
   C        1.79405         5.34855         1.03826
   C        2.76199         4.40799         1.39834
   C        3.24913         3.92702         2.71721
   C        2.77329         4.38443         3.93611
   C        3.23669         3.89941         5.19747
   N        3.59898         3.50901         6.23116
   C        1.76032         5.38727         4.04273
   N        0.93697         6.20175         4.14259
   C        4.27593         2.91561         2.45920
   C        4.96445         2.17895         3.40823
   C        5.94140         1.16226         3.33789
   S        6.72448         0.54772         1.86136
   C        7.67607        -0.53503         2.80469
   C        7.38802        -0.45874         4.18549
   C        6.41588         0.50015         4.50740
   C        5.89450         0.74507         5.89920
   C        4.48801         0.17168         6.13735
   S        8.33194        -1.61096         5.14726
   C        9.10010        -2.17777         3.68212
   C        8.64180        -1.52065         2.53168
   N        9.28213        -2.01019         1.40108
   C        9.58383        -1.05407         0.32093
   C       10.96884        -0.43549         0.48252
   C       10.14277        -3.02605         1.83760
   C       10.07341        -3.11768         3.26022
   C       10.95079        -3.99538         3.97754
   N       11.04168        -4.12821         5.29302
   S       12.25938        -5.21150         5.58471
   N       12.69678        -5.53392         4.01937
   C       11.90926        -4.80535         3.24000
   C       11.89303        -4.77987         1.80556
   C       10.98535        -3.92173         1.10422
   N       11.09193        -4.18208        -0.25845
   C       10.18617        -3.81451        -1.34666
   C       10.80885        -2.85931        -2.36090
   C       12.06173        -5.15253        -0.42712
   C       12.57793        -5.53156         0.82527
   S       13.79186        -6.78470         0.71602
   C       13.59056        -6.79616        -1.04281
   C       12.62331        -5.87498        -1.50012
   S       12.45188        -5.90148        -3.22032
   C       13.71141        -7.15657        -3.34363
   C       14.21928        -7.52284        -2.06444
   C       15.24822        -8.58549        -1.78789
   C       14.61215        -9.94144        -1.43686
   C       14.20819        -7.73151        -4.53593
   C       13.94059        -7.54998        -5.88391
   C       14.60522        -8.23152        -6.99728
   C       15.59810        -9.19643        -6.94485
   C       16.17513        -9.78015        -8.11448
   N       16.65567       -10.26454        -9.05500
   C       16.14588        -9.70145        -5.72649
   N       16.60248       -10.12214        -4.74355
   C       14.02443        -7.69640        -8.25655
   C       14.28193        -7.97492        -9.60244
   C       13.55871        -7.28491       -10.58551
  Cl       13.88540        -7.63270       -12.25090
   C       12.58335        -6.32423       -10.23967
  Cl       11.70254        -5.48206       -11.46848
   C       12.32435        -6.04797        -8.89293
   C       13.04718        -6.73679        -7.93127
   C       12.94886        -6.60978        -6.45691
   O       12.18979        -5.86237        -5.86269
   H        3.78644         3.39507        -1.72196
   H        1.21636         5.91331         1.76452
   H        4.70513         2.40099         4.44026
   H        5.88278         1.82537         6.11633
   H        6.59883         0.29694         6.61665
   H        3.74771         0.64031         5.47433
   H        4.16871         0.36654         7.17179
   H        4.46549        -0.91443         5.95672
   H        8.81144        -0.27483         0.36734
   H        9.47001        -1.53072        -0.65549
   H       11.75558        -1.20461         0.43962
   H       11.05063         0.08203         1.45038
   H       11.16068         0.29525        -0.31734
   H        9.27496        -3.40524        -0.89516
   H        9.88186        -4.74651        -1.85041
   H       10.06367        -2.57625        -3.11935
   H       11.65130        -3.33259        -2.88473
   H       11.18434        -1.94586        -1.87996
   H       15.87247        -8.24236        -0.94584
   H       15.92971        -8.71903        -2.63946
   H       13.92521        -9.85043        -0.58132
   H       15.39201       -10.67261        -1.17905
   H       14.04353       -10.33890        -2.29088
   H       14.98104        -8.46318        -4.31368
   H       15.02146        -8.70332        -9.92506
   H       11.57406        -5.31020        -8.60624
*
