# ORCA input file
# BTSe-4F.out: Geometry 118
! B3LYP def2-TZVP def2/J RIJCOSX Grid4 TightSCF

%maxcore 6000
%tddft
  maxdim 5
  nroots 3
  dosoc true
  end
%pal
  nprocs 6
  end


* xyz 0 1
   C        1.10865        -2.12712        -0.90107
   C        1.74995        -1.04664        -1.58778
   C        3.18056        -0.99374        -1.63986
   C        3.95030        -2.10759        -1.17947
   C        3.31357        -3.24243        -0.57672
   C        1.87257        -3.22797        -0.39075
   N        3.90531        -4.32056        -0.08075
   S        2.71450        -5.25977         0.58300
   N        1.41085        -4.29637         0.24373
   N        4.05694         0.03308        -1.99726
   C        5.34506        -0.42772        -1.79931
   C        5.30826        -1.74174        -1.30222
   C       -0.27260        -1.83844        -0.87622
   C       -0.45859        -0.63160        -1.58226
   N        0.76874        -0.17289        -2.04369
  Se       -1.86231        -2.46700        -0.12050
   C       -2.68398        -0.89681        -0.87984
   C       -1.76104        -0.12979        -1.61728
   C        6.65564         0.09750        -1.85465
   C        7.59849        -0.82949        -1.36962
   S        6.88476        -2.36889        -0.88933
   S        7.41132         1.58891        -2.29944
   C        8.98245         0.99460        -1.73375
   C        8.92025        -0.33812        -1.29229
   C        0.86640         0.90140        -3.01121
   C        3.76872         1.45508        -2.09878
   C       -3.98692        -0.38283        -0.67525
   C       -5.02991        -0.74222         0.15807
   C       10.09634         1.88232        -1.79855
   C       11.19068         1.97142        -0.97316
   C       -5.04772        -1.93276         1.03426
   C       -6.27592        -1.83036         1.85993
   C       -7.01124        -0.69499         1.46505
   C       -6.25871         0.01636         0.39983
   C       12.42572         2.66637        -1.47524
   C       13.48963         2.35280        -0.48402
   C       12.93988         1.60906         0.58161
   C       11.47540         1.48607         0.37351
   C       -6.67109        -2.65899         2.90468
   C       -7.84663        -2.32920         3.57037
   C       -8.60905        -1.21852         3.16864
   C       -8.21119        -0.39081         2.12257
   C       14.83621         2.69921        -0.53675
   C       15.65304         2.26519         0.50140
   C       15.12425         1.49660         1.55622
   C       13.77165         1.17082         1.62069
   O       -4.22641        -2.83597         1.08409
   C       -6.66005         1.20790        -0.18217
   C       -5.86444         1.94160        -1.11722
   C       -7.90342         1.84406         0.12456
   F       -8.27180        -3.04612         4.60578
   F       -9.73389        -0.96024         3.83049
   O       12.53926         3.31234        -2.49526
   C       10.56045         1.17856         1.36398
   C        9.14986         1.35867         1.22011
   C       10.95265         0.74345         2.66832
   F       15.95367         1.07939         2.50828
   F       16.94854         2.56216         0.51805
   N       -8.91095         2.37774         0.35186
   N       -5.22701         2.56661        -1.86250
   N       11.24592         0.36832         3.72850
   N        7.99944         1.51111         1.16544
   C       10.07902        -1.17010        -0.84687
   H       -2.06103         0.80366        -2.09601
   H       -0.03161         0.88869        -3.64530
   H        1.73404         0.74641        -3.66167
   H        0.93809         1.88987        -2.53050
   H        2.90861         1.70949        -1.46852
   H        4.63199         2.01637        -1.71789
   H        3.57259         1.77519        -3.13218
   H       -4.13859         0.52516        -1.25799
   H       10.13085         2.57857        -2.64819
   H       -6.07562        -3.52072         3.21024
   H       -8.84210         0.45945         1.87392
   H       15.24196         3.28928        -1.36041
   H       13.42053         0.58900         2.47127
   H       11.03347        -0.75549        -1.19432
   H        9.97996        -2.19589        -1.23317
   H       10.12391        -1.23316         0.25330
*
