# ORCA input file
# BTTPC-Br.out: Geometry 93
! B3LYP def2-TZVP def2/J RIJCOSX Grid4 TightSCF

%maxcore 6000
%tddft
  maxdim 5
  nroots 3
  dosoc true
  end
%pal
  nprocs 6
  end


* xyz 0 1
   C       -3.41386        -1.38753        -0.65858
   O       -2.96078        -0.59725        -1.46209
   C       -2.74576        -2.62331        -0.16900
   C       -1.47224        -3.06169        -0.47769
   C       -1.01387        -4.24383         0.13954
   C       -1.88973        -4.93852         1.03019
   C       -3.18297        -4.49616         1.33479
   C       -3.60740        -3.31300         0.72815
   C       -4.86275        -2.54723         0.85654
   C       -6.01591        -2.96052         1.49801
   C       -6.10251        -4.20722         2.19138
   N       -6.16665        -5.21804         2.76144
   C       -7.22715        -2.19832         1.48033
   N       -8.22541        -1.60294         1.47693
   C       -4.69430        -1.29622         0.11655
   C       -5.35439        -0.11655         0.36773
   C       -5.22058         1.11276        -0.34855
   S       -5.13854         2.60019         0.62207
   C       -4.95690         3.55303        -0.80896
   C       -5.03002         2.75637        -1.96890
   C       -5.16249         1.36784        -1.72528
   C       -5.38935         0.35023        -2.80625
   C       -6.74507         0.52898        -3.50690
   S       -4.90860         3.69971        -3.45763
   C       -4.73880         5.15396        -2.50645
   C       -4.75021         4.91418        -1.12556
   N       -4.62476         6.10769        -0.43243
   C       -5.19359         6.19593         0.91356
   C       -6.70497         6.38799         0.89479
   C       -4.55757         7.13368        -1.38355
   C       -4.65429         6.55634        -2.68581
   C       -4.76481         7.38608        -3.84933
   N       -4.90295         6.98764        -5.10656
   S       -5.09387         8.35132        -6.02624
   N       -5.00070         9.48705        -4.82441
   C       -4.81860         8.83020        -3.68720
   C       -4.62101         9.39563        -2.38607
   C       -4.42445         8.55598        -1.24607
   N       -4.10709         9.36325        -0.15265
   C       -3.40828         8.99656         1.07982
   C       -4.22226         9.24304         2.34833
   C       -4.14043        10.68092        -0.57907
   C       -4.46530        10.72912        -1.94394
   S       -4.47694        12.34775        -2.59367
   C       -4.01396        12.97391        -1.00669
   C       -3.84931        11.95496        -0.04395
   S       -3.32243        12.60397         1.46678
   C       -3.36706        14.25765         0.81687
   C       -3.75550        14.28277        -0.53697
   C       -3.74547        15.49044        -1.43549
   C       -5.06508        15.74983        -2.18073
   C       -2.89446        15.26153         1.70973
   C       -3.08809        16.61723         1.84420
   C       -4.05647        17.58464         1.34924
   C       -5.34006        17.30575         0.90551
   C       -6.22086        18.31464         0.40985
   N       -6.93159        19.12724        -0.02205
   C       -5.91190        16.00428         1.01689
   N       -6.39947        14.95425         1.12248
   C       -3.52945        18.93945         1.64810
   C       -3.98686        20.21107         1.29838
   C       -3.30656        21.30836         1.84839
   C       -2.20305        21.17400         2.74660
   C       -1.74731        19.88113         3.07125
   C       -2.40394        18.80363         2.50852
   C       -2.09657        17.36467         2.69141
   O       -1.20216        16.88489         3.35829
   C       -1.70555        22.44423         3.19563
   C       -2.39776        23.48687         2.64922
   S       -3.68718        22.99481         1.56866
   S       -1.12615        -6.37120         1.68187
   C        0.33607        -6.02391         0.78099
   C        0.26150        -4.89326         0.01762
  Br        1.80930        -7.17066         0.94760
  Br       -2.09633        25.31141         2.94938
   H       -0.84675        -2.49212        -1.16856
   H       -3.81020        -5.05426         2.02784
   H       -5.97561        -0.07128         1.26804
   H       -5.32937        -0.65778        -2.38267
   H       -4.56390         0.42675        -3.53299
   H       -7.57075         0.38548        -2.79310
   H       -6.86159        -0.21086        -4.31343
   H       -6.85273         1.52984        -3.95176
   H       -4.70946         6.99890         1.46677
   H       -4.91946         5.26649         1.43410
   H       -6.97228         7.32706         0.38602
   H       -7.10005         6.42900         1.92118
   H       -7.20075         5.55867         0.36919
   H       -2.47795         9.58628         1.11838
   H       -3.09363         7.94941         0.98728
   H       -5.18395         8.71110         2.33060
   H       -4.44535        10.31161         2.48034
   H       -3.65255         8.90466         3.22787
   H       -2.94865        15.32888        -2.18370
   H       -3.44568        16.37632        -0.86415
   H       -5.91774        15.82400        -1.49449
   H       -5.29405        14.94193        -2.89154
   H       -5.00119        16.68665        -2.75395
   H       -2.16858        14.89752         2.45225
   H       -4.83787        20.36298         0.63667
   H       -0.90449        19.71930         3.74607
   H       -0.87263        22.56710         3.88728
   H        1.07995        -4.52634        -0.60081
*
