# ORCA input file
# DTG-IW.out: Geometry 135
! B3LYP def2-TZVP def2/J RIJCOSX Grid4 TightSCF

%maxcore 6000
%tddft
  maxdim 5
  nroots 3
  dosoc true
  end
%pal
  nprocs 6
  end


* xyz 0 1
   C       -0.82337         0.49674        -0.34886
   C        0.41620        -0.14161        -0.16585
   S        0.23869        -1.67408         0.65404
   C       -1.49393        -1.47880         0.77053
   C       -1.87201        -0.26322         0.20513
   C       -2.41157        -2.36976         1.39687
   C       -2.35014        -3.69159         1.75588
   C       -1.45047        -4.78923         1.43121
   C       -0.73787        -4.94498         0.25546
   C        0.16160        -6.03264         0.03496
   N        0.91747        -6.89633        -0.14863
   C       -0.94736        -4.09595        -0.87494
   N       -1.15274        -3.44991        -1.81849
   C       -1.65594        -5.84029         2.45929
   C       -1.00093        -7.05606         2.69245
   C       -1.50015        -7.88316         3.69596
   F       -0.90866        -9.04692         3.95063
   C       -2.63079        -7.53280         4.45766
   F       -3.05486        -8.37821         5.39414
   C       -3.29070        -6.33083         4.22875
   C       -2.78848        -5.50171         3.23127
   C       -3.32018        -4.18557         2.78767
   O       -4.30605        -3.61261         3.20217
   C        8.28804         3.33401        -5.81734
   C        7.10072         3.59355        -5.10712
   S        6.30853         5.02787        -5.67676
   C        7.56396         5.32411        -6.86763
   C        8.53556         4.32130        -6.79259
   C        7.39959         6.47939        -7.67892
   C        8.25092         7.14653        -8.53528
   C        7.91615         8.37866        -9.26057
   C        6.66850         8.94351        -9.45980
   C        6.48093        10.15254       -10.20105
   N        6.32083        11.13638       -10.79875
   C        5.44837         8.37903        -8.97290
   N        4.44100         7.94582        -8.58773
   C        9.17829         8.92791        -9.80643
   C        9.45552        10.11233       -10.50007
   C       10.77248        10.36025       -10.86956
   F       11.06861        11.47893       -11.52396
   C       11.81015         9.45818       -10.57076
   F       13.04719         9.76304       -10.95136
   C       11.54275         8.27526        -9.88970
   C       10.22515         8.03302        -9.51601
   C        9.69464         6.86133        -8.77087
   O       10.35226         5.89120        -8.43435
   C       -1.00971         1.81519        -1.06016
   C       -2.33743         2.56973        -0.82486
   C       -2.33825         3.38836         0.47813
   C       -2.18453         2.61372         1.78788
   C       -2.63136         3.46516        -2.04573
   C       -3.98555         4.17419        -2.02264
   C        1.74570         0.27419        -0.55226
   S        2.03252         1.24773        -1.99207
   C        3.74548         1.16633        -1.75456
   C        4.09575         0.43382        -0.61585
   C        2.95641        -0.06702         0.05353
   C        4.80936         1.78421        -2.51563
   C        6.11564         1.66442        -2.03319
  Ge        6.02641         0.72319        -0.29997
   S        4.73421         2.63902        -4.01920
   C        6.48385         2.84470        -4.03173
   C        7.05535         2.26741        -2.90270
   C        9.09205         2.05928        -5.66803
   C       10.50065         2.03359        -6.29649
   C       11.57342         2.66451        -5.39008
   C       11.32025         4.10394        -4.93748
   C       10.86025         0.58179        -6.67523
   C       12.23335         0.39649        -7.32254
   C        6.08565         1.98636         1.21481
   C        7.28627        -0.76605        -0.11986
   C        5.45789         3.34474         0.83895
   C        4.73417         4.00443         2.02833
   C        3.37677         3.37227         2.33983
   C        6.51158         4.27279         0.20704
   C        5.91376         5.34598        -0.69925
   C        8.74059        -0.30730        -0.40413
   C        9.74478        -0.94523         0.57046
   C        9.60146        -0.48697         2.02065
   C        9.10230        -0.58620        -1.87478
   C       10.42076         0.02507        -2.34850
   H       -2.91474         0.04862         0.20161
   H       -3.34394        -1.88935         1.72294
   H       -0.12654        -7.38727         2.13436
   H       -4.17495        -6.05630         4.80632
   H        9.39338         4.33702        -7.45688
   H        6.41891         6.93939        -7.55253
   H        8.70396        10.85178       -10.76542
   H       12.34080         7.57031        -9.65095
   H       -0.90795         1.62252        -2.14289
   H       -0.17080         2.48606        -0.80860
   H       -3.15972         1.83415        -0.77117
   H       -3.27861         3.95957         0.52725
   H       -1.53439         4.14481         0.40250
   H       -2.97529         1.85577         1.90802
   H       -2.25850         3.30016         2.64618
   H       -1.21794         2.09198         1.86038
   H       -2.57353         2.83585        -2.95078
   H       -1.82257         4.21162        -2.14817
   H       -4.80935         3.45086        -1.90078
   H       -4.16087         4.72215        -2.96187
   H       -4.06342         4.90539        -1.20361
   H        2.98734        -0.65426         0.97310
   H        8.12500         2.33111        -2.70184
   H        8.48643         1.25970        -6.13161
   H        9.16994         1.77355        -4.60865
   H       10.47641         2.60308        -7.24100
   H       12.53637         2.63578        -5.92427
   H       11.70219         2.01672        -4.50349
   H       11.21670         4.78360        -5.79737
   H       12.15847         4.46811        -4.32221
   H       10.40551         4.19836        -4.33217
   H       10.08518         0.20729        -7.36566
   H       10.78696        -0.05506        -5.77457
   H       12.38311         1.10989        -8.14956
   H       12.34098        -0.61776        -7.73818
   H       13.05338         0.54512        -6.60442
   H        7.11740         2.11425         1.58129
   H        5.52573         1.49059         2.02462
   H        6.99685        -1.58936        -0.79095
   H        7.17778        -1.14760         0.90697
   H        4.68212         3.17217         0.07139
   H        4.58006         5.07426         1.80618
   H        5.39112         3.96829         2.91613
   H        2.69818         3.46604         1.47507
   H        2.89147         3.85801         3.20088
   H        3.46215         2.29731         2.56787
   H        7.21533         3.66560        -0.38494
   H        7.11330         4.73521         1.01140
   H        5.36998         4.88399        -1.53956
   H        6.69136         5.99819        -1.12583
   H        5.20176         5.98834        -0.15615
   H        8.81634         0.78916        -0.25372
   H       10.76684        -0.70796         0.23290
   H        9.64550        -2.04451         0.50760
   H        9.76104         0.60081         2.11209
   H       10.33693        -0.98564         2.66955
   H        8.60427        -0.71154         2.43174
   H        8.28448        -0.21704        -2.51377
   H        9.12604        -1.68083        -2.02344
   H       10.42552         1.12319        -2.23441
   H       10.59853        -0.19986        -3.41133
   H       11.28328        -0.36580        -1.78805
*
