# ORCA input file
# EH-IDTBR.out: Geometry 51
! B3LYP def2-TZVP def2/J RIJCOSX Grid4 TightSCF

%maxcore 6000
%tddft
  maxdim 5
  nroots 3
  dosoc true
  end
%pal
  nprocs 6
  end


* xyz 0 1
   S       -1.34109        -1.21835        -2.61673
   C       -0.73298        -0.06801        -3.82128
   S       -0.87318        -0.33186        -5.43775
   N       -0.14882         1.01296        -3.20757
   C        0.48850         2.09911        -3.95376
   C        1.92050         1.76108        -4.35981
   C       -0.17512         1.03900        -1.80581
   O        0.29979         1.93857        -1.14555
   C       -0.90592        -0.15412        -1.28213
   C       -1.23629        -0.17713         0.03743
   C       -2.08680        -1.05135         0.81376
   C       -2.45939        -2.39302         0.45307
   N       -1.94848        -3.09689        -0.55565
   S       -2.67649        -4.56594        -0.55983
   N       -3.66374        -4.36218         0.73559
   C       -3.45780        -3.13565         1.21710
   C       -4.12731        -2.53384         2.34962
   C       -3.65561        -1.27361         2.71494
   C       -2.66862        -0.57223         1.98746
   C       -5.26730        -3.16670         2.98285
   C       -5.71967        -4.47812         2.85904
   C       -6.97468        -4.67632         3.46787
   C       -7.48093        -3.54001         4.07755
   S       -6.41904        -2.18672         3.91314
   C       -8.84203        -3.75996         4.52357
   C       -9.19774        -5.08316         4.12613
   C       -8.00138        -5.79591         3.46822
   C       -8.27147        -6.27458         2.01476
   C       -8.37156        -5.18469         0.93072
   C       -8.09063        -5.77587        -0.46510
   C       -6.64448        -6.22831        -0.68541
   C       -9.69884        -4.39846         0.94944
   C       -9.53416        -2.94609         0.49943
   C       -7.47105        -6.93731         4.38825
   C       -8.20828        -8.29316         4.40257
   C       -7.64607        -9.27040         3.34056
   C       -8.69527       -10.14128         2.65257
   C       -8.11752        -8.87298         5.83012
   C       -8.65089       -10.28864         6.03952
   C      -10.49750        -5.53594         4.32017
   C      -11.43649        -4.65178         4.88098
   C      -11.07046        -3.34138         5.30483
   C       -9.76274        -2.90353         5.14589
   C      -12.28525        -2.57814         5.86240
   C      -12.12261        -2.13335         7.34424
   C      -12.29124        -3.18850         8.44830
   C      -11.17633        -4.26223         8.45792
   C      -11.69174        -5.68684         8.66966
   C      -12.40773        -2.45626         9.79835
   C      -12.64245        -3.34111        11.02094
   C      -12.63476        -1.33428         4.99396
   C      -11.62746        -0.15427         5.03297
   C      -10.76488        -0.10245         3.74944
   C       -9.33909         0.42561         3.92957
   C      -12.38846         1.15170         5.33771
   C      -11.54685         2.41246         5.52996
   C      -13.37575        -3.62401         5.68701
   C      -12.85416        -4.78825         5.13387
   S      -14.04182        -6.01544         4.91015
   C      -15.30105        -4.94647         5.55562
   C      -14.75842        -3.70902         5.92378
   C      -16.68803        -5.35333         5.64407
   C      -17.12559        -6.68553         5.30656
   N      -16.34242        -7.67242         4.87164
   S      -17.29407        -8.98318         4.61953
   N      -18.73782        -8.33904         5.05982
   C      -18.52225        -7.07310         5.41862
   C      -19.53211        -6.14266         5.87489
   C      -19.06496        -4.85910         6.16975
   C      -17.70640        -4.48930         6.05783
   C      -20.87559        -6.65960         5.98148
   C      -22.09072        -6.14115         6.33078
   S      -23.52345        -7.19041         6.35244
   C      -24.60431        -5.86384         6.76605
   S      -26.22929        -6.04753         6.94351
   N      -23.88140        -4.69931         6.89654
   C      -24.51978        -3.41940         7.22094
   C      -24.84516        -3.28194         8.70364
   C      -22.49118        -4.76302         6.68933
   O      -21.77678        -3.78165         6.78938
   H        0.45660         2.97665        -3.29388
   H       -0.13310         2.28769        -4.84024
   H        2.53848         1.54472        -3.47524
   H        2.37147         2.61155        -4.89468
   H        1.93674         0.88738        -5.02799
   H       -0.86387         0.70224         0.57486
   H       -4.09138        -0.78313         3.58798
   H       -2.37906         0.42125         2.33758
   H       -5.17026        -5.22204         2.28698
   H       -7.43622        -6.93459         1.74736
   H       -9.17516        -6.90822         1.99968
   H       -7.56709        -4.45801         1.12324
   H       -8.34183        -5.01492        -1.22329
   H       -8.78380        -6.61736        -0.64699
   H       -6.34821        -7.03574         0.00403
   H       -6.49682        -6.61436        -1.70693
   H       -5.94198        -5.39426        -0.52699
   H      -10.12812        -4.39905         1.95901
   H      -10.43552        -4.91821         0.31161
   H       -8.89267        -2.39512         1.20689
   H      -10.50113        -2.42166         0.44766
   H       -9.06134        -2.87489        -0.49438
   H       -7.45318        -6.52045         5.40800
   H       -6.41703        -7.12278         4.12098
   H       -9.27597        -8.12490         4.17654
   H       -6.88250        -9.90973         3.81795
   H       -7.10302        -8.70876         2.56779
   H       -9.41445        -9.51920         2.09359
   H       -8.22810       -10.83531         1.93529
   H       -9.27391       -10.74276         3.37072
   H       -8.64432        -8.18329         6.51134
   H       -7.05584        -8.84814         6.13945
   H       -9.72053       -10.36946         5.78467
   H       -8.53475       -10.58973         7.09311
   H       -8.10639       -11.02656         5.43212
   H      -10.80652        -6.53074         3.99660
   H       -9.45310        -1.91377         5.47340
   H      -12.87005        -1.34255         7.52139
   H      -11.14076        -1.64622         7.46178
   H      -13.25220        -3.70168         8.27049
   H      -10.43671        -4.00416         9.23576
   H      -10.62010        -4.23503         7.51177
   H      -12.32206        -5.76964         9.56828
   H      -10.86136        -6.40294         8.77545
   H      -12.30568        -6.00568         7.81221
   H      -13.22549        -1.71720         9.72476
   H      -11.48730        -1.86244         9.95300
   H      -13.56047        -3.94271        10.91595
   H      -12.74761        -2.72666        11.92915
   H      -11.80842        -4.03927        11.19267
   H      -13.61889        -0.98536         5.34656
   H      -12.78890        -1.66464         3.95397
   H      -10.93872        -0.31095         5.87892
   H      -11.29442         0.49004         2.98204
   H      -10.69409        -1.11883         3.33301
   H       -9.30691         1.48371         4.22672
   H       -8.76056         0.31468         2.99876
   H       -8.80098        -0.13936         4.70745
   H      -12.97998         0.98096         6.25414
   H      -13.12987         1.32491         4.53598
   H      -10.72621         2.24612         6.24710
   H      -12.16655         3.23537         5.92024
   H      -11.09789         2.76138         4.58791
   H      -15.35815        -2.90795         6.35591
   H      -19.78487        -4.11343         6.50340
   H      -17.45205        -3.46107         6.31824
   H      -20.90792        -7.72109         5.71376
   H      -25.43553        -3.35440         6.61673
   H      -23.81429        -2.64353         6.89586
   H      -25.55495        -4.05902         9.01865
   H      -25.30727        -2.30021         8.89372
   H      -23.93269        -3.36033         9.31324
*
