# ORCA input file
# FO-2F.out: Geometry 97
! B3LYP def2-TZVP def2/J RIJCOSX Grid4 TightSCF

%maxcore 6000
%tddft
  maxdim 5
  nroots 3
  dosoc true
  end
%pal
  nprocs 6
  end


* xyz 0 1
   C        5.08002        -3.50737         1.97359
   O        6.23184        -3.34276         2.33578
   C        4.36498        -4.80815         1.99662
   C        4.89574        -6.04912         2.32864
   C        4.05598        -7.15227         2.23629
   F        4.50073        -8.37293         2.51971
   C        2.71745        -6.99568         1.83095
   F        1.95809        -8.08355         1.73941
   C        2.18384        -5.74794         1.51784
   C        3.02948        -4.63284         1.59057
   C        2.81624        -3.20009         1.27711
   C        1.59858        -2.62703         0.96209
   C        1.42547        -1.22510         0.73431
   N        1.25449        -0.09086         0.54722
   C        0.39317        -3.39052         0.85999
   N       -0.58769        -4.00705         0.76773
   C        4.11588        -2.52630         1.39062
   C        4.44351        -1.33334         0.77607
   C        5.70031        -0.67444         0.69515
   C        6.85014        -0.74600         1.48776
   C        7.94326        -0.05550         0.94663
   C        7.64958         0.56505        -0.27005
   S        5.99736         0.33909        -0.72376
   C        8.68095         1.16150        -1.08140
   C       10.01263         0.84371        -0.69063
   O       10.28581         0.13495         0.42391
   C        9.33375         0.08666         1.52445
   C        9.74974        -1.12801         2.36255
   C        9.74737        -2.45649         1.60960
   C        9.43858         1.41222         2.31357
   C       10.82111         1.71108         2.89255
   C       11.08646         1.18329        -1.51618
   C       10.83314         1.88657        -2.69255
   C        9.52171         2.28406        -3.05982
   C        8.45392         1.89697        -2.26729
   C        9.53798         3.05291        -4.38327
   C        8.73575         2.30601        -5.48199
   C        9.16725         0.86463        -5.74385
   C        9.04423         4.52020        -4.24642
   C        7.57397         4.72818        -3.88756
   C       11.03379         3.05215        -4.70383
   C       11.76077         2.33100        -3.72598
   C       13.13187         2.11014        -3.85002
   C       13.79566         2.64440        -4.95543
   C       13.10161         3.46318        -5.89052
   C       11.70465         3.63379        -5.76637
   C       13.93591         4.09582        -6.88232
   C       15.24177         3.66047        -7.12284
   C       15.76368         2.45864        -6.36634
   C       17.26146         2.56031        -6.04614
   C       17.66141         3.83930        -5.30976
   C       15.39859         1.17424        -7.14354
   C       15.62783        -0.13678        -6.39572
   O       15.12205         2.41676        -5.06261
   C       15.87916         4.41514        -8.11251
   C       15.09870         5.46759        -8.62139
   S       13.51868         5.46831        -7.84603
   C       15.66223         6.46967        -9.45295
   C       15.30730         7.72804        -9.88080
   C       14.09173         8.52282        -9.86082
   C       12.79780         8.05924       -10.02308
   C       11.65871         8.92004        -9.95489
   N       10.73162         9.61705        -9.87867
   C       12.52731         6.71832       -10.43199
   N       12.29644         5.64544       -10.81485
   C       14.49947         9.95099        -9.88599
   C       13.76656        11.13411        -9.73742
   C       14.44157        12.34528        -9.87288
   F       13.78252        13.48862        -9.70258
   C       15.81195        12.39815       -10.19161
   F       16.39205        13.58481       -10.35107
   C       16.54827        11.22714       -10.33293
   C       15.87840        10.01947       -10.17366
   C       16.44069         8.64556       -10.24461
   O       17.59006         8.33516       -10.47842
   H        5.93396        -6.15563         2.64629
   H        1.14349        -5.69795         1.20402
   H        3.66173        -0.87448         0.16667
   H        6.86955        -1.31405         2.41153
   H        9.08148        -1.17456         3.23799
   H       10.75798        -0.93137         2.75579
   H        8.73659        -2.75359         1.29513
   H       10.14339        -3.25693         2.25253
   H       10.38212        -2.39102         0.71440
   H        8.67846         1.38565         3.11224
   H        9.13276         2.22384         1.63249
   H       11.09813         1.00423         3.68847
   H       10.84794         2.72113         3.32991
   H       11.59294         1.65638         2.11017
   H       12.09036         0.87227        -1.22328
   H        7.42631         2.12854        -2.55353
   H        8.80877         2.89515        -6.41258
   H        7.67131         2.31476        -5.19810
   H       10.21889         0.80588        -6.06532
   H        8.55033         0.41564        -6.53682
   H        9.05370         0.24279        -4.84222
   H        9.24683         5.02086        -5.20861
   H        9.68033         5.02440        -3.50139
   H        6.89866         4.21374        -4.58644
   H        7.32338         5.79954        -3.92926
   H        7.34265         4.37623        -2.87134
   H       13.70050         1.52941        -3.12208
   H       11.17208         4.21946        -6.52006
   H       17.82663         2.45332        -6.98650
   H       17.51909         1.68534        -5.43076
   H       17.57509         4.72934        -5.95021
   H       18.70259         3.77809        -4.95824
   H       17.01846         3.99473        -4.43193
   H       15.96393         1.19450        -8.08897
   H       14.33641         1.24931        -7.42875
   H       16.68484        -0.29532        -6.13203
   H       15.30779        -0.98662        -7.01785
   H       15.04408        -0.16302        -5.46469
   H       16.90088         4.24863        -8.45536
   H       16.71375         6.26012        -9.69094
   H       12.70398        11.15856        -9.50268
   H       17.61158        11.26125       -10.57607
*
