# ORCA input file
# IDTCF.out: Geometry 15
! B3LYP def2-TZVP def2/J RIJCOSX Grid4 TightSCF

%maxcore 6000
%tddft
  maxdim 5
  nroots 3
  dosoc true
  end
%pal
  nprocs 6
  end


* xyz 0 1
   C        2.64853         1.22107        -0.53170
   C        2.82642        -0.19418        -0.54917
   C        1.71829        -1.02750        -0.63989
   C        0.45052        -0.43424        -0.75726
   C        0.28039         0.98255        -0.78465
   C        1.38117         1.81519        -0.65105
   C       -0.87432        -1.01231        -0.79590
   C       -1.84454        -0.01235        -0.84581
   C       -1.19968         1.35937        -0.93046
   C        3.95487         1.80500        -0.34863
   C        4.93554         0.81362        -0.26833
   C        4.30919        -0.56883        -0.39407
   S       -1.55781        -2.58702        -0.67249
   C       -3.18517        -1.90149        -0.62367
   C       -3.15078        -0.50842        -0.75089
   S        4.59883         3.39297        -0.21657
   C        6.23288         2.74377        -0.07352
   C        6.22543         1.34280        -0.13306
   C       -1.69329         2.29512         0.19825
   C       -1.49177         1.95409        -2.34298
   C       -0.98208         3.36868        -2.61157
   C       -1.66476         1.67583         1.59492
   C        4.88087        -1.26122        -1.66589
   C        4.50513        -1.41249         0.89614
   C        4.38461        -2.67419        -1.97098
   C        5.94648        -1.79864         1.22626
   C        7.33913         3.62994         0.08775
   C       -4.30602        -2.75160        -0.36998
   C        8.64469         3.21144         0.13682
   C        9.80556         4.01154         0.32280
   C       11.18144         3.37024         0.28913
   O       12.08289         4.48612         0.50765
   C       11.40203         5.62593         0.67182
   C        9.97838         5.36204         0.56520
   C       11.50661         2.76748        -1.07714
   C       11.38074         2.38284         1.43917
   C        8.92705         6.30621         0.69470
   C       12.08212         6.80497         0.89829
   C       11.40928         8.05051         1.07430
   C       13.50931         6.79218         0.95541
   N       10.88916         9.07922         1.22122
   N       14.67021         6.78556         1.00232
   N        7.99739         6.99784         0.78210
   C       -5.50444        -2.29311         0.11226
   C       -6.63956        -3.08113         0.46251
   C       -7.76638        -2.49693         1.30019
   O       -8.69278        -3.60746         1.43967
   C       -8.22832        -4.70016         0.82533
   C       -6.94985        -4.40207         0.20402
   C       -6.15511        -5.29539        -0.56166
   C       -8.95753        -5.87082         0.85163
   C       -8.49808        -7.06708         0.22447
   C      -10.20992        -5.90420         1.53698
   C       -8.51381        -1.36319         0.60130
   C       -7.29551        -2.10599         2.70371
   N      -11.22870        -5.93555         2.09420
   N       -8.14754        -8.05486        -0.27689
   N       -5.44473        -5.95908        -1.19791
   H        1.81384        -2.11376        -0.59696
   H        1.27475         2.90091        -0.61504
   H       -4.05518         0.09970        -0.76716
   H        7.13859         0.75385        -0.07237
   H       -2.72006         2.61708        -0.04970
   H       -1.08296         3.21183         0.18718
   H       -2.58612         1.93180        -2.48375
   H       -1.07449         1.25979        -3.08994
   H       -1.39904         4.09933        -1.90274
   H       -1.28251         3.69098        -3.62070
   H        0.11588         3.43098        -2.56085
   H       -2.35942         0.82630         1.67717
   H       -1.95253         2.41718         2.35571
   H       -0.66021         1.30068         1.84862
   H        5.97804        -1.28110        -1.56392
   H        4.67241        -0.60188        -2.52410
   H        3.89599        -2.32566         0.80388
   H        4.07100        -0.84424         1.73489
   H        4.54561        -3.36398        -1.12813
   H        4.92990        -3.08541        -2.83419
   H        3.31502        -2.69172        -2.22589
   H        6.41701        -2.37985         0.41822
   H        5.97959        -2.41851         2.13547
   H        6.57155        -0.91386         1.41635
   H        7.11094         4.69433         0.18027
   H       -4.15956        -3.82414        -0.51896
   H        8.83994         2.14379         0.01073
   H       11.39643         3.52710        -1.86406
   H       10.82621         1.93329        -1.29768
   H       12.53932         2.38984        -1.08652
   H       11.13798         2.86186         2.39906
   H       12.42675         2.04551         1.46481
   H       10.73376         1.50343         1.30970
   H       -5.58952        -1.22594         0.33260
   H       -8.87878        -1.68946        -0.38277
   H       -7.85471        -0.49356         0.46704
   H       -9.37518        -1.05743         1.21240
   H       -6.80729        -2.95825         3.19761
   H       -8.15678        -1.78731         3.30851
   H       -6.57684        -1.27463         2.65001
*
