# ORCA input file
# ITCC.out: Geometry 31
! B3LYP def2-TZVP def2/J RIJCOSX Grid4 TightSCF

%maxcore 6000
%tddft
  maxdim 5
  nroots 3
  dosoc true
  end
%pal
  nprocs 6
  end


* xyz 0 1
   C        0.92865        -1.19299         0.56682
   O        1.15839        -2.34321         0.89326
   C       -0.37541        -0.50830         0.62713
   C       -0.28666         0.80272         0.18491
   C        1.10633         1.07905        -0.20259
   C        1.53047         2.30805        -0.67516
   C        0.60328         3.38194        -0.86136
   N       -0.16264         4.24204        -1.01681
   C        2.88186         2.61997        -1.01832
   N        3.97601         2.89168        -1.30206
   C        1.87396        -0.16016         0.01819
   C        3.21024        -0.32112        -0.28290
   C        4.11132        -1.41760        -0.17596
   C        3.97539        -2.72490         0.31015
   C        5.15626        -3.46145         0.15748
   C        6.22373        -2.74662        -0.44676
   S        5.75392        -1.12856        -0.81258
   C        7.37203        -3.54308        -0.63497
   C        8.71725        -3.40855        -1.33712
   C        9.69995        -2.49671        -0.58999
   C        9.45620        -2.06912         0.71972
   C       10.36408        -1.23924         1.38102
   C       11.54643        -0.81584         0.76063
   C       12.54142         0.04545         1.50051
   C       13.51000        -0.78314         2.35621
   C       11.79075        -1.25414        -0.54964
   C       10.88462        -2.07861        -1.21483
   C        8.42356        -2.90796        -2.75944
   C        8.06691        -3.78882        -3.78700
   C        7.63042        -3.30300        -5.02213
   C        7.53935        -1.92689        -5.27204
   C        6.97450        -1.38607        -6.56346
   C        5.50604        -0.95961        -6.40622
   C        7.91531        -1.05111        -4.24421
   C        8.34398        -1.52972        -3.00816
   C        9.21418        -4.86927        -1.26475
   C        8.29861        -5.68037        -0.53650
   C        7.17203        -4.84134        -0.18947
   S        5.59741        -5.13011         0.49864
   C        8.52720        -7.04932        -0.32870
   C        9.66572        -7.60922        -0.88566
   C       10.11681        -9.08402        -0.86641
   C       10.71216        -9.55300         0.47937
   C       10.74077       -10.91658         0.80702
   C       11.49038       -11.37645         1.88996
   C       12.25293       -10.49961         2.67343
   C       13.12107       -11.02380         3.79484
   C       12.35241       -11.79950         4.86972
   C       12.20034        -9.13503         2.35561
   C       11.44549        -8.66770         1.27884
   C        9.00230        -9.99467        -1.37826
   C        8.98924       -10.46449        -2.69669
   C        7.96249       -11.29604        -3.14716
   C        6.91399       -11.68285        -2.30208
   C        5.78843       -12.54637        -2.82057
   C        4.73345       -11.73330        -3.58304
   C        6.92562       -11.20208        -0.98449
   C        7.95228       -10.37481        -0.52917
   C       11.32519        -9.00278        -1.78253
   C       11.59274        -7.69600        -2.15730
   C       10.56550        -6.80696        -1.64971
   C       10.35587        -5.42857        -1.82194
   S       13.09873        -7.50857        -3.02186
   C       13.39747        -9.23660        -2.86857
   C       12.34757        -9.88094        -2.17583
   S       12.64217       -11.56693        -1.98182
   C       14.20701       -11.41408        -2.79065
   C       14.43802       -10.11016        -3.23664
   C       15.05177       -12.54732        -2.98713
   C       15.07250       -13.74339        -2.32146
   C       14.50151       -14.19097        -1.04818
   C       14.29240       -13.45821         0.10485
   C       13.73008       -14.06490         1.27031
   N       13.24858       -14.54822         2.21155
   C       14.68759       -12.09337         0.26147
   N       15.04152       -11.00291         0.44945
   C       14.41827       -15.65871        -1.12215
   C       15.09834       -16.09483        -2.25525
   C       15.62075       -14.95641        -3.04152
   O       16.27633       -14.96133        -4.06036
   S       -1.95704        -0.94085         1.12285
   C       -2.52435         0.65966         0.73606
   C       -1.53879         1.48649         0.24769
   S       15.11922       -17.80425        -2.39082
   C       14.20305       -17.94748        -0.91852
   C       13.90317       -16.73388        -0.34094
   H        3.69047         0.56065        -0.70951
   H        3.03544        -3.07813         0.72764
   H        8.54161        -2.37815         1.22790
   H       10.13909        -0.89806         2.39535
   H       11.99584         0.75328         2.14687
   H       13.11340         0.65456         0.78080
   H       12.95854        -1.40740         3.07712
   H       14.19927        -0.13475         2.92095
   H       14.11405        -1.45835         1.72851
   H       12.69887        -0.92676        -1.06366
   H       11.08490        -2.37342        -2.24646
   H        8.11414        -4.86637        -3.61618
   H        7.34475        -4.01025        -5.80560
   H        7.06540        -2.14711        -7.35635
   H        7.57278        -0.52050        -6.89362
   H        4.88272        -1.81202        -6.09207
   H        5.09636        -0.55814        -7.34704
   H        5.40343        -0.18061        -5.63393
   H        7.85883         0.02858        -4.40892
   H        8.61259        -0.81941        -2.22532
   H        7.80952        -7.65658         0.22445
   H       10.19008       -11.63428         0.19799
   H       11.50478       -12.44547         2.11228
   H       13.66517       -10.18308         4.25530
   H       13.89412       -11.68057         3.35892
   H       11.59935       -11.16057         5.35890
   H       13.03723       -12.17706         5.64509
   H       11.83248       -12.66925         4.44008
   H       12.78558        -8.42512         2.94650
   H       11.45997        -7.60300         1.03483
   H        9.79473       -10.18719        -3.37877
   H        7.98386       -11.66415        -4.17648
   H        5.31150       -13.07935        -1.98164
   H        6.20390       -13.32127        -3.48687
   H        4.24590       -10.99945        -2.92166
   H        3.95254       -12.38606        -4.00425
   H        5.19566       -11.17442        -4.41216
   H        6.12535       -11.49380        -0.29840
   H        7.95742       -10.04759         0.51211
   H       11.05493        -4.82615        -2.40416
   H       15.34659        -9.82658        -3.76786
   H       15.71545       -12.50874        -3.86036
   H       -3.57201         0.91344         0.89551
   H       -1.71916         2.51580        -0.05239
   H       13.92756       -18.93477        -0.54900
   H       13.34501       -16.63082         0.58710
*
