# ORCA input file
# NIBT.out: Geometry 41
! B3LYP def2-TZVP def2/J RIJCOSX Grid4 TightSCF

%maxcore 6000
%tddft
  maxdim 5
  nroots 3
  dosoc true
  end
%pal
  nprocs 6
  end


* xyz 0 1
   C        5.31302         1.06733         1.00101
   C        5.01878        -0.29551         1.28299
   C        5.20403        -0.80014         2.57004
   C        5.66418         0.08909         3.56425
   C        5.94798         1.45165         3.26081
   C        5.79501         1.93728         1.98133
   C        4.93229         1.31787        -0.36477
   C        4.37282         0.18858        -0.94457
   C        4.40159        -0.98686         0.03838
   S        4.96804         2.67386        -1.41675
   C        4.18701         1.72839        -2.68813
   C        3.95215         0.41590        -2.26772
   C        5.83014        -0.05654         5.00215
   C        6.21598         1.15018         5.57182
   C        6.36531         2.23053         4.50954
   S        5.54618        -1.28280         6.18499
   C        5.84607        -0.11973         7.48967
   C        6.21832         1.11829         6.97353
   C        3.84851         2.33220        -3.95402
   C        3.00453        -1.51064         0.40266
   C        5.28060        -2.09471        -0.56860
   C        7.81132         2.70460         4.34028
   C        5.40326         3.37726         4.85786
   C        5.52109        -0.37584         8.88082
   C        4.35815         3.61730        -4.34485
   C        4.00568         4.21262        -5.62495
   C        3.10972         3.54645        -6.53366
   C        2.69950         2.27822        -6.14310
   C        3.03805         1.70136        -4.89631
   C        5.42951        -1.69082         9.46222
   C        4.99463        -1.87720        10.84454
   C        4.65153        -0.73883        11.66233
   C        4.71766         0.49703        11.03750
   C        5.16018         0.67894         9.71603
   N        5.19834         4.36577        -3.63054
   S        5.51865         5.70894        -4.51246
   N        4.61055         5.38202        -5.83572
   N        5.67032        -2.83756         8.82410
   S        5.36717        -4.04749         9.88999
   N        4.91132        -3.16251        11.19158
   C        2.74559         4.13695        -7.82006
   C        2.42848         5.42679        -8.09266
   C        4.15976        -0.79189        13.03023
   C        4.58535        -1.51462        14.09920
   C        2.14898         6.60074        -7.24904
   C        2.02857         7.71128        -8.13299
   C        2.15749         7.37443        -9.49268
   C        2.35352         5.88918        -9.54420
   C        4.00138        -1.38888        15.44202
   C        4.87184        -2.04669        16.34604
   C        5.98520        -2.63426        15.72165
   C        5.88480        -2.30858        14.25083
   C        1.92073         6.84036        -5.89661
   C        1.62995         8.15867        -5.45421
   C        1.56272         9.24333        -6.32985
   C        1.76613         9.01863        -7.71002
   C        1.69788        10.03195        -8.69367
   C        1.86204         9.70394       -10.03908
   C        2.07494         8.36508       -10.45693
   C        1.24746        10.61672        -5.87471
   N        1.22199        11.61523        -6.87330
   C        1.44795        11.42984        -8.25323
   C        0.88461        12.96867        -6.41610
   C        2.04787        13.69905        -5.72728
   C        3.27801        13.84745        -6.62534
   C        1.54582        15.06082        -5.23518
   C        6.93503        -3.27923        16.50032
   C        6.75812        -3.30030        17.91077
   C        5.66310        -2.68564        18.52312
   C        4.68369        -2.04863        17.73044
   C        3.55383        -1.37435        18.24966
   C        2.66771        -0.75862        17.36730
   C        2.87831        -0.75767        15.96418
   C        3.37477        -1.31421        19.71626
   N        4.39697        -1.91435        20.48765
   C        5.51150        -2.62165        19.99976
   C        4.33779        -1.75707        21.94807
   C        5.26569        -0.65309        22.48995
   C        5.04531         0.70216        21.81879
   C        5.09483        -0.55121        24.00628
   C        6.57229        -2.38604        -0.12162
   C        7.34226        -3.36803        -0.75668
   C        6.86536        -4.07249        -1.86792
   C        5.56099        -3.78183        -2.30595
   C        4.78425        -2.82060        -1.66344
   C        2.86316        -2.76686         1.01065
   C        1.61431        -3.21745         1.43794
   C        0.46102        -2.43598         1.26776
   C        0.60798        -1.18998         0.64463
   C        1.85651        -0.73359         0.21771
   C        8.87759         1.94072         4.82488
   C       10.20011         2.34061         4.61857
   C       10.50320         3.51441         3.92434
   C        9.42972         4.27212         3.42373
   C        8.10721         3.87726         3.62776
   C        4.12559         3.48571         4.30001
   C        3.24333         4.48484         4.72502
   C        3.59688         5.39493         5.72890
   C        4.88074         5.27696         6.28834
   C        5.76800         4.29503         5.85786
   O        1.05037        10.90241        -4.70758
   O        1.40499        12.36232        -9.03406
   O        2.45414         5.18831       -10.52549
   O        6.71847        -2.54462        13.40728
   O        2.43280        -0.75205        20.24234
   O        6.31635        -3.11406        20.76866
   C       -0.88729        -2.93202         1.73915
   C        7.74839        -5.07735        -2.58487
   C       -1.55703        -2.01070         2.76160
   C        7.04829        -6.34768        -3.08089
   C       11.93393         3.93096         3.67549
   C       12.36206         3.75963         2.21436
   C        2.62793         6.45488         6.20637
   C        3.20551         7.87292         6.25458
   H        4.95882        -1.83423         2.81936
   H        6.00281         2.98307         1.74601
   H        3.49194        -0.33526        -2.90752
   H        6.45233         1.97214         7.60550
   H        2.03979         1.71412        -6.80825
   H        2.63360         0.71413        -4.66927
   H        4.42020         1.38109        11.60677
   H        5.15240         1.68960         9.31008
   H        2.73054         3.46862        -8.68912
   H        3.36739        -0.06357        13.24262
   H        1.94886         6.03569        -5.16350
   H        1.44447         8.35044        -4.39531
   H        1.80435        10.51159       -10.77189
   H        2.16770         8.12020       -11.51780
   H        0.04913        12.87131        -5.70932
   H        0.55660        13.53286        -7.29822
   H        2.32760        13.09761        -4.84376
   H        3.04013        14.41638        -7.53747
   H        3.67662        12.87013        -6.94085
   H        4.08374        14.37316        -6.08843
   H        1.22998        15.69394        -6.08260
   H        2.33367        15.60243        -4.69022
   H        0.68285        14.95303        -4.55812
   H        7.80954        -3.74738        16.04384
   H        7.49611        -3.78268        18.55415
   H        1.80088        -0.24801        17.79243
   H        2.16149        -0.24718        15.31753
   H        4.63309        -2.71754        22.39074
   H        3.29484        -1.53469        22.20032
   H        6.30055        -0.97713        22.28525
   H        4.00206         1.03920        21.93330
   H        5.27212         0.66874        20.74162
   H        5.70211         1.46194        22.26834
   H        4.08066        -0.20030        24.26620
   H        5.81029         0.16530        24.43680
   H        5.25952        -1.52273        24.50036
   H        6.98997        -1.84489         0.72591
   H        8.34466        -3.58373        -0.37770
   H        5.14120        -4.31504        -3.16079
   H        3.76726        -2.63163        -2.01245
   H        3.73819        -3.40483         1.14706
   H        1.52963        -4.19720         1.91450
   H       -0.26946        -0.55824         0.48130
   H        1.93825         0.24023        -0.26702
   H        8.67366         1.01995         5.37208
   H       11.01159         1.72973         5.02191
   H        9.63392         5.19457         2.87288
   H        7.29428         4.49203         3.23698
   H        3.80548         2.77536         3.53247
   H        2.25350         4.54883         4.26509
   H        5.19617         5.97069         7.07180
   H        6.76288         4.23873         6.30450
   H       -0.76410        -3.93596         2.17440
   H       -1.55607        -3.05655         0.86892
   H        8.57876        -5.35335        -1.91393
   H        8.22716        -4.57090        -3.44505
   H       -0.90433        -1.85040         3.63433
   H       -2.50418        -2.44387         3.12045
   H       -1.78215        -1.02223         2.33182
   H        6.56954        -6.88994        -2.24938
   H        7.76833        -7.02620        -3.56453
   H        6.26572        -6.12419        -3.82184
   H       12.60068         3.34314         4.32621
   H       12.06478         4.98586         3.97564
   H       12.27550         2.70832         1.89730
   H       13.40563         4.08159         2.06772
   H       11.72834         4.36038         1.54407
   H        2.26674         6.18002         7.21458
   H        1.73775         6.44019         5.55769
   H        4.05159         7.94666         6.95519
   H        2.44359         8.59453         6.58743
   H        3.57152         8.18873         5.26459
*
