# ORCA input file
# PCBM.out: Geometry 9
! B3LYP def2-TZVP def2/J RIJCOSX Grid4 TightSCF

%maxcore 6000
%tddft
  maxdim 5
  nroots 3
  dosoc true
  end
%pal
  nprocs 6
  end


* xyz 0 1
   C        0.36771        -2.43092         1.23868
   C        0.77804        -2.29688        -0.14141
   C        1.53282        -1.01517        -0.28437
   C        1.30375        -0.28798         0.99795
   C        0.69255        -1.19859         1.93664
   C       -0.14043        -0.72974         2.95907
   C       -0.43291         0.68521         3.04127
   C        0.12358         1.56128         2.09921
   C        1.00770         1.06518         1.06048
   C        0.73328         1.83598        -0.16923
   C        0.76733         1.22475        -1.41408
   C        1.23331        -0.17886        -1.62404
   C        0.23405        -0.78204        -2.55338
   C       -0.30239        -2.04967        -2.37377
   C       -0.02488        -2.82182        -1.14467
   C       -1.23553        -3.54624        -0.79898
   C       -2.25226        -3.23978        -1.79374
   C       -1.67720        -2.31663        -2.75950
   C       -2.47181        -1.30244        -3.31001
   C       -1.92048         0.02616        -3.47135
   C       -0.60218         0.27600        -3.07301
   C       -0.27430         1.50760        -2.37425
   C       -1.27676         2.44595        -2.10031
   C       -1.29825         3.10464        -0.81225
   C       -0.31610         2.79231         0.13813
   C       -0.69073         2.62720         1.53504
   C       -2.02377         2.77482         1.92787
   C       -2.60348         1.85585         2.89818
   C       -1.82370         0.83234         3.44356
   C       -2.38835        -0.50097         3.61276
   C       -3.70775        -0.75645         3.22645
   C       -4.51798         0.31151         2.65995
   C       -3.97676         1.59105         2.50046
   C       -4.24886         2.35183         1.28723
   C       -3.04448         3.08617         0.93604
   C       -2.68887         3.24959        -0.40603
   C       -3.52629         2.67715        -1.45268
   C       -2.65150         2.17925        -2.50313
   C       -2.96654         0.99613        -3.17510
   C       -4.17094         0.25738        -2.82658
   C       -3.86402        -1.16537        -2.90938
   C       -4.41302        -2.05330        -1.97990
   C       -3.59207        -3.11601        -1.41446
   C       -3.97251        -3.28550        -0.01809
   C       -5.01846        -2.32034         0.28164
   C       -5.29031        -1.55900        -0.93135
   C       -5.58230        -0.19393        -0.84929
   C       -5.01096         0.73287        -1.81530
   C       -4.68323         1.96782        -1.11530
   C       -5.05169         1.80244         0.28292
   C       -5.60918         0.46754         0.44722
   C       -5.34878        -0.26219         1.61050
   C       -5.04959        -1.68471         1.52693
   C       -4.03575        -1.99107         2.52534
   C       -3.03207        -2.92221         2.23914
   C       -2.99855        -3.58208         0.94000
   C       -1.60524        -3.72155         0.54157
   C       -0.78362        -3.14711         1.58535
   C       -1.65894        -2.65272         2.63943
   C       -1.34451        -1.46962         3.31181
   C        2.60837        -0.71219        -1.29726
   C        3.13968        -1.88572        -2.11697
   C        3.65192         0.30575        -0.91521
   C        4.34371         0.21802         0.29967
   C        5.33534         1.14913         0.62002
   C        5.64864         2.17637        -0.27410
   C        4.96508         2.26887        -1.49086
   C        3.97331         1.33823        -1.80744
   H        5.86254         1.07281         1.57340
   H        6.42113         2.90630        -0.02042
   H        4.09706        -0.57775         1.00494
   H        3.42902         1.41840        -2.75156
   H        5.20201         3.07014        -2.19483
   C        3.94343        -2.87170        -1.27207
   H        3.75971        -1.47648        -2.93214
   H        2.30584        -2.41540        -2.59955
   H        3.31155        -3.26133        -0.45853
   C        4.47418        -4.04597        -2.08483
   H        4.78310        -2.35818        -0.77756
   H        5.18379        -3.72405        -2.86523
   H        3.65713        -4.55708        -2.62604
   C        5.15888        -5.08414        -1.22338
   O        5.15402        -5.10418        -0.01655
   O        5.77912        -6.01188        -1.97492
   C        6.45141        -7.04878        -1.26138
   H        6.95116        -7.66889        -2.01610
   H        5.73566        -7.65397        -0.68331
   H        7.18900        -6.62654        -0.56256
*
