# ORCA input file
# SNBDT1-F.out: Geometry 170
! B3LYP def2-TZVP def2/J RIJCOSX Grid4 TightSCF

%maxcore 6000
%tddft
  maxdim 5
  nroots 3
  dosoc true
  end
%pal
  nprocs 6
  end


* xyz 0 1
   C       -3.02947        -0.81091         0.18491
   C       -1.97407        -0.21533        -0.53148
   C       -0.68458        -0.69249        -0.32498
   C       -0.36290        -1.72726         0.61672
   C       -1.41665        -2.25157         1.41810
   C       -2.72276        -1.77071         1.21500
   S        0.69953         0.01391        -1.15209
   C        1.75073        -1.02901        -0.24277
   C        1.07578        -1.91824         0.63522
   C        3.12978        -1.22518        -0.08882
   C        3.27602        -2.24751         0.87931
   N        2.03102        -2.66983         1.31459
   S        4.66005        -0.65745        -0.66057
   C        5.50513        -1.81243         0.39360
   C        4.60857        -2.59314         1.13885
   S       -4.13158        -2.06215         2.27995
   C       -5.11036        -0.97651         1.32718
   C       -4.42500        -0.46594         0.20571
   C       -6.37937        -0.36164         1.35909
   C       -6.43507         0.47970         0.21833
   N       -5.26193         0.38449        -0.50750
   S       -7.81324        -0.19879         2.31859
   C       -8.45136         1.03110         1.20461
   C       -7.59537         1.25205         0.12494
   O       -1.05712        -3.12846         2.39392
   O       -2.16552         0.86645        -1.34591
   C       -2.48747         2.10067        -0.65805
   C       -1.26840         2.88939        -0.18849
   C       -0.44804         3.41360        -1.36879
   C       -1.74799         4.02705         0.72087
   C       -1.94101        -4.15577         2.84747
   C       -1.16590        -5.13587         3.72346
   C       -0.52909        -4.43194         4.92562
   C       -2.09096        -6.27316         4.16661
   C       -5.18977         0.76637        -1.91542
   C       -5.72932        -0.29131        -2.89690
   C        1.90915        -3.86285         2.14070
   C        2.28917        -5.15073         1.38695
   C       -7.16915        -0.72884        -2.61677
   C       -5.59512         0.25787        -4.32057
   C        2.56263        -6.28381         2.37931
   C        1.22904        -5.53834         0.35465
   C        6.90366        -2.04307         0.35829
   C        7.95107        -1.38702        -0.24651
   C        9.17124        -2.18517        -0.58601
   C        9.92731        -1.35571        -1.56878
   C        9.26534        -0.12169        -1.75291
   C        8.11981        -0.05767        -0.81245
   C       11.08567        -1.69344        -2.25467
   C       11.56812        -0.75921        -3.17141
   C       10.92827         0.46402        -3.39452
   C        9.77493         0.79836        -2.67856
   C       -9.70380         1.66060         1.44755
   C      -10.14885         2.86933         0.96159
   C      -11.62534         3.11677         0.86324
   C      -11.77266         4.30180        -0.03410
   C      -10.49420         4.80149        -0.36331
   C       -9.46992         4.02057         0.37139
   C      -12.94436         4.85882        -0.53208
   C      -12.80802         5.93841        -1.40739
   C      -11.55607         6.44707        -1.76844
   C      -10.38914         5.88895        -1.24160
   O      -12.51628         2.45826         1.35735
   F      -13.89616         6.51131        -1.92954
   C       -8.17683         4.45446         0.61422
   C       -7.63279         5.63373         0.01634
   C       -7.28620         3.82650         1.53851
   N       -7.15702         6.57434        -0.47389
   N       -6.52321         3.37772         2.29167
   O        9.45040        -3.30288        -0.20251
   F       12.67496        -1.03764        -3.86532
   C        7.50812         1.10318        -0.37041
   C        7.72703         2.37004        -0.99409
   C        6.73029         1.13747         0.82808
   N        6.14497         1.18656         1.83061
   N        7.88682         3.39684        -1.51542
   H        4.94958        -3.36827         1.82462
   H       -7.83073         1.94773        -0.67755
   H       -3.15068         1.87701         0.19129
   H       -3.06027         2.69819        -1.38451
   H       -0.63842         2.20849         0.40993
   H       -1.02657         4.16031        -1.93910
   H       -0.16917         2.60315        -2.05670
   H        0.47693         3.89876        -1.02143
   H       -2.42247         4.71005         0.17657
   H       -0.89831         4.62295         1.08684
   H       -2.29640         3.64291         1.59565
   H       -2.38710        -4.66439         1.97549
   H       -2.75696        -3.72187         3.44840
   H       -0.36621        -5.57350         3.10279
   H       -1.30859        -4.00631         5.57965
   H        0.13202        -3.60972         4.61695
   H        0.06220        -5.14104         5.52647
   H       -2.90975        -5.89532         4.80157
   H       -1.53103        -7.01557         4.75626
   H       -2.54129        -6.79512         3.30704
   H       -4.14440         0.97052        -2.16445
   H       -5.75407         1.70609        -2.02349
   H       -5.07738        -1.17769        -2.79877
   H        0.88530        -3.90679         2.50989
   H        2.57123        -3.72937         3.01056
   H        3.22864        -4.94626         0.84462
   H       -7.49112        -1.47555        -3.35909
   H       -7.86407         0.12513        -2.68437
   H       -7.28542        -1.18067        -1.62145
   H       -6.25427         1.13088        -4.46289
   H       -5.88672        -0.50008        -5.06349
   H       -4.56530         0.57891        -4.54303
   H        1.65618        -6.54532         2.94974
   H        3.34301        -6.00644         3.10546
   H        2.89923        -7.19155         1.85510
   H        0.30217        -5.86866         0.85166
   H        1.58178        -6.36710        -0.27861
   H        0.97454        -4.69495        -0.30554
   H        7.20441        -3.00307         0.79717
   H       11.59241        -2.64453        -2.08456
   H       11.35133         1.15047        -4.13006
   H        9.29301         1.75692        -2.85994
   H      -10.45636         1.09576         2.01313
   H      -13.92265         4.46526        -0.25149
   H      -11.51415         7.28931        -2.46121
   H       -9.42652         6.30462        -1.53106
*
