# ORCA input file
# Y14.out: Geometry 33
! B3LYP def2-TZVP def2/J RIJCOSX Grid4 TightSCF

%maxcore 6000
%tddft
  maxdim 5
  nroots 3
  dosoc true
  end
%pal
  nprocs 6
  end


* xyz 0 1
   C        0.07812        -2.84523        -1.00073
   O       -0.56363        -3.85769        -1.22758
   C        1.38276        -2.49451        -1.62240
   C        2.12213        -3.25056        -2.52124
   C        3.33128        -2.70508        -2.95162
   C        3.78017        -1.45624        -2.51274
   C        3.02096        -0.71008        -1.60707
   C        1.80550        -1.23773        -1.14603
   C        0.79889        -0.73226        -0.17850
   C        0.88930         0.48523         0.48011
   C        1.94407         1.42115         0.24694
   N        2.78039         2.20796         0.06610
   C       -0.06363         0.94412         1.44153
   N       -0.82014         1.33971         2.23168
   C       -0.26062        -1.73911        -0.07902
   C       -1.38018        -1.66747         0.73314
   C       -2.50063        -2.49819         0.95498
   S       -2.85244        -4.04066         0.12953
   C       -4.31234        -4.21328         1.03787
   C       -4.51208        -3.14573         1.93927
   C       -3.50999        -2.16532         1.90319
   C       -3.53199        -0.96437         2.80951
   C       -3.24191        -1.33473         4.27277
   S       -5.98352        -3.31577         2.90743
   C       -6.31432        -4.82657         2.09351
   C       -5.35061        -5.16393         1.13246
   N       -5.70635        -6.33791         0.49451
   C       -5.12083        -6.64501        -0.80831
   C       -6.04890        -6.43438        -2.01688
   C       -6.90962        -6.78179         1.06056
   C       -7.30969        -5.82338         2.05406
   C       -8.57264        -5.95103         2.69815
   N       -9.18257        -5.17305         3.60441
   N      -10.35693        -5.76987         3.77858
   C      -11.39502        -5.16722         4.60294
   C      -12.32883        -4.28478         3.78008
   N      -10.58612        -6.86063         3.05639
   C       -9.45307        -7.01018         2.35182
   C       -9.03592        -8.01430         1.42874
   C       -7.74308        -7.92373         0.80693
   N       -7.55921        -9.07121         0.02090
   C       -6.31514        -9.67833        -0.44393
   C       -5.34338       -10.14282         0.65542
   C       -8.70172        -9.84201         0.12915
   C       -9.62419        -9.21681         0.98037
   S      -11.08889       -10.14113         1.20905
   C      -10.45181       -11.39272         0.13553
   C       -9.17647       -11.07402        -0.37506
   S       -8.64020       -12.26963        -1.49901
   C      -10.12409       -13.22101        -1.26026
   C      -10.99934       -12.60571        -0.34343
   C      -12.39473       -13.05434        -0.00478
   C      -12.61286       -13.32704         1.49097
   C      -10.29040       -14.32870        -2.14188
   C      -11.04420       -15.47960        -2.10681
   C      -11.71079       -16.23985        -1.06054
   C      -11.36624       -16.25981         0.27947
   C      -12.06790       -17.05043         1.23953
   N      -12.65954       -17.67166         2.02378
   C      -10.22393       -15.56312         0.77533
   N       -9.28614       -15.01712         1.19128
   C      -12.64590       -17.18335        -1.72055
   C      -13.63219       -18.04202        -1.21557
   C      -14.32418       -18.87185        -2.10319
   C      -14.01906       -18.85638        -3.46910
   C      -13.04406       -18.01100        -3.99912
   C      -12.38348       -17.17833        -3.10742
   C      -11.33527       -16.16472        -3.41241
   O      -10.85264       -15.91878        -4.49821
   F      -14.68573       -19.67434        -4.28728
   F        4.09185        -3.39544        -3.80503
   C       -5.95523       -11.20484         1.59872
   C       -6.70404       -10.65452         2.81469
   C       -4.07457       -10.66585        -0.03114
   C       -6.56152        -4.98295        -2.17040
   C       -7.78484        -4.59639        -1.33764
   C       -5.28575        -6.86438        -3.27589
   H        1.77582        -4.22240        -2.87450
   H        4.73005        -1.07804        -2.89382
   H        3.39590         0.25450        -1.27494
   H       -1.43351        -0.77807         1.35540
   H       -4.53652        -0.51153         2.74212
   H       -2.82688        -0.18949         2.48270
   H       -3.95482        -2.08432         4.64714
   H       -3.31472        -0.44267         4.91230
   H       -2.22991        -1.75605         4.37734
   H       -4.70734        -7.65994        -0.80146
   H       -4.25085        -5.98459        -0.91942
   H       -6.92604        -7.09446        -1.89384
   H      -10.87108        -4.58793         5.37480
   H      -11.94014        -5.99057         5.08516
   H      -11.75632        -3.50116         3.26175
   H      -13.06868        -3.80004         4.43534
   H      -12.86518        -4.88364         3.02881
   H       -5.81363        -9.00165        -1.13973
   H       -6.60397       -10.54919        -1.04825
   H       -5.06508        -9.25845         1.25649
   H      -12.66080       -13.93707        -0.59730
   H      -13.08483       -12.25303        -0.32506
   H      -13.63667       -13.68796         1.67180
   H      -12.46379       -12.41480         2.08747
   H      -11.91269       -14.07740         1.87690
   H       -9.76520       -14.22493        -3.10205
   H      -13.87988       -18.07433        -0.15577
   H      -15.10394       -19.54690        -1.74606
   H      -12.80578       -18.00598        -5.06417
   H       -5.13865       -11.85036         1.96323
   H       -6.61532       -11.87188         1.01704
   H       -6.02672       -10.07248         3.46087
   H       -7.11875       -11.47659         3.41834
   H       -7.54151        -9.99987         2.54022
   H       -4.29688       -11.54759        -0.65501
   H       -3.32337       -10.96707         0.71372
   H       -3.61404        -9.90425        -0.68187
   H       -6.81968        -4.83970        -3.23371
   H       -5.72912        -4.28445        -1.97232
   H       -8.59622        -5.33225        -1.46461
   H       -8.17352        -3.61891        -1.66401
   H       -7.57092        -4.51891        -0.26381
   H       -4.43519        -6.18920        -3.46322
   H       -5.94011        -6.83055        -4.15947
   H       -4.88373        -7.88753        -3.19336
*
