# ORCA input file
# Y6.out: Geometry 184
! B3LYP def2-TZVP def2/J RIJCOSX Grid4 TightSCF

%maxcore 6000
%tddft
  maxdim 5
  nroots 3
  dosoc true
  end
%pal
  nprocs 6
  end


* xyz 0 1
   C        2.66734         3.95000         1.81746
   O        2.70140         4.19135         0.62820
   C        1.96722         4.73311         2.86767
   C        1.23032         5.90147         2.71096
   C        0.66812         6.46740         3.84933
   F       -0.04883         7.58522         3.76940
   C        0.84907         5.86672         5.10953
   F        0.29260         6.45292         6.16751
   C        1.58046         4.68872         5.26353
   C        2.14479         4.10882         4.11927
   C        2.89282         2.83977         3.91260
   C        2.92844         1.77783         4.80123
   C        3.34024         0.47889         4.38339
   N        3.66087        -0.58030         4.02808
   C        2.47165         1.87998         6.15023
   N        2.12545         1.96749         7.25645
   C        3.35919         2.82347         2.53727
   C        4.24544         2.07391         1.79145
   C        5.32957         1.18553         2.03895
   S        5.82015         0.22939         0.61555
   C        7.19791        -0.38732         1.44991
   C        7.26449         0.11928         2.76613
   C        6.22834         1.01566         3.11454
   C        6.26119         1.84028         4.37329
   C        6.37122         1.04582         5.68196
   S        8.74293        -0.36263         3.60956
   C        9.27479        -1.19256         2.17212
   C        8.34048        -1.15385         1.12444
   N        8.89135        -1.71691        -0.01544
   C        8.30581        -1.43867        -1.32712
   C        8.73730        -0.09501        -1.90971
   C       10.20700        -2.07234         0.28610
   C       10.46292        -1.75281         1.65568
   C       11.79040        -1.82349         2.19290
   N       12.16355        -1.58475         3.44216
   S       13.81611        -1.69106         3.48056
   N       14.08581        -2.04072         1.88465
   C       12.90045        -2.08652         1.29294
   C       12.62512        -2.39906        -0.07855
   C       11.28557        -2.50994        -0.55079
   N       11.29888        -2.92669        -1.88893
   C       10.30744        -3.85605        -2.46167
   C        9.80341        -3.48881        -3.85246
   C       12.63723        -2.98106        -2.28038
   C       13.46124        -2.65605        -1.18857
   S       15.15812        -2.59384        -1.57738
   C       14.75991        -3.01573        -3.24639
   C       13.37702        -3.21565        -3.46146
   S       13.03243        -3.60279        -5.11144
   C       14.75549        -3.44606        -5.53540
   C       15.54854        -3.12211        -4.40032
   C       17.01807        -2.80267        -4.40546
   C       17.27746        -1.29137        -4.49402
   C       15.31533        -3.57307        -6.82656
   C       14.79600        -3.86545        -8.07614
   C       15.54332        -3.93750        -9.33480
   C       16.88234        -3.65436        -9.55260
   C       17.49679        -3.74735       -10.84000
   N       18.02180        -3.81006       -11.87500
   C       17.78380        -3.23561        -8.52390
   N       18.53807        -2.89977        -7.70456
   C       14.58867        -4.36717       -10.39284
   C       14.74844        -4.64376       -11.75863
   C       13.62918        -5.06856       -12.47349
   F       13.72869        -5.36061       -13.76697
   C       12.36784        -5.21371       -11.86934
   F       11.34878        -5.63414       -12.61165
   C       12.19633        -4.92746       -10.52235
   C       13.31594        -4.51592        -9.81172
   C       13.38319        -4.19424        -8.36982
   O       12.43402        -4.21520        -7.60301
   H        1.08945         6.36137         1.73145
   H        1.68442         4.26836         6.26290
   H        4.09880         2.28726         0.72194
   H        5.39161         2.50450         4.40808
   H        7.14106         2.50523         4.28836
   H        5.54105         0.33734         5.79978
   H        6.36489         1.73607         6.53885
   H        7.30374         0.46416         5.73327
   H        7.21423        -1.47311        -1.19484
   H        8.54970        -2.25110        -2.01308
   H        9.81456        -0.08831        -2.13564
   H        8.51679         0.72454        -1.20933
   H        8.18896         0.10148        -2.84363
   H        9.47691        -3.92063        -1.74756
   H       10.76525        -4.85981        -2.48214
   H        9.00792        -4.18874        -4.14923
   H       10.59328        -3.55948        -4.61195
   H        9.39567        -2.46767        -3.88537
   H       17.53954        -3.30814        -5.22917
   H       17.45740        -3.19869        -3.47496
   H       16.88977        -0.88532        -5.44043
   H       18.35657        -1.08116        -4.45267
   H       16.78842        -0.75460        -3.66804
   H       16.38742        -3.39213        -6.80328
   H       15.69397        -4.54853       -12.28959
   H       11.22402        -5.03760       -10.04041
*
