# ORCA input file
# BT6IC-HD-4Cl.out
! CAM-B3LYP def2-SVP def2/J RIJCOSX Grid4 TightSCF
%maxcore 5000
%tddft
    Mode sTDDFT
    Ethresh 5.0
    maxcore 5000
end
* xyz 0 1
  C      3.285365    6.676259   -0.293504
  O      4.268030    7.386186   -0.350429
  C      1.863435    7.101637   -0.333133
  C      1.355290    8.384980   -0.460317
  C     -0.033362    8.550204   -0.498900
  C     -0.878185    7.421933   -0.414751
  C     -0.353194    6.131020   -0.259301
  C      1.032646    5.968974   -0.212659
  C      1.883036    4.769883    0.006563
  C      1.428663    3.564444    0.516650
  C      2.312189    2.565571    1.020667
  N      3.016067    1.749298    1.455566
  C      0.042238    3.254885    0.671751
  N     -1.079180    2.971654    0.787614
  C      3.262967    5.175856   -0.202385
  C      4.480908    4.543196   -0.324255
  C      4.918985    3.211757   -0.548730
  S      6.539384    2.855203    0.087683
  C      6.436451    1.231081   -0.478895
  C      5.228827    0.995556   -1.172256
  C      4.360161    2.110886   -1.227645
  C      3.105909    2.187201   -2.055933
  C      2.190119    0.960804   -2.000199
  S      5.111225   -0.663831   -1.777761
  C      6.674328   -1.012339   -1.089197
  C      7.245097    0.076557   -0.422771
  N      8.508839   -0.252614    0.041268
  C      9.465360    0.838820    0.221178
  C     10.325623    1.151258   -1.019972
  C      8.756007   -1.585642   -0.324143
  C      7.615409   -2.062756   -1.047895
  C      7.578569   -3.372490   -1.620882
  N      6.582530   -3.916326   -2.306991
  S      7.084999   -5.426015   -2.763841
  N      8.595908   -5.407276   -2.086086
  C      8.739176   -4.228657   -1.494595
  C      9.851877   -3.777085   -0.713556
  C      9.850228   -2.491652   -0.071243
  N     10.970197   -2.430466    0.762591
  C     11.385994   -1.448938    1.760466
  C     12.459192   -0.426066    1.319985
  C     11.659780   -3.624372    0.641093
  C     11.015068   -4.451932   -0.289331
  S     11.829638   -5.974063   -0.545910
  C     13.047190   -5.508555    0.649512
  C     12.792375   -4.240993    1.219260
  S     13.964760   -3.857535    2.423833
  C     14.830996   -5.387096    2.129486
  C     14.224286   -6.146247    1.106518
  C     14.838315   -7.325743    0.401469
  C     15.222453   -6.993561   -1.051659
  C     16.047618   -5.501667    2.851620
  C     16.817419   -6.587859    3.215806
  C     18.168023   -6.504897    3.771537
  C     18.974122   -5.384209    3.890095
  C     18.615512   -4.081238    3.422183
  N     18.372036   -3.007931    3.046547
  C     20.261616   -5.424605    4.509858
  N     21.303437   -5.437984    5.024624
  C     18.570934   -7.875608    4.159919
  C     19.771743   -8.380911    4.662528
  C     19.886984   -9.757875    4.882969
  C     18.809201  -10.632154    4.620698
  C     17.599974  -10.122066    4.133485
  C     17.504089   -8.757953    3.901770
  C     16.353303   -8.003840    3.329907
  O     15.254526   -8.459313    3.077070
  Cl    18.974406  -12.334681    4.883508
  Cl    -0.693749   10.143227   -0.650051
  C     13.082725    0.235707    2.559973
  C     12.096482    0.980853    3.462153
  C     13.537227   -0.993772    0.395056
  C      9.510337    1.181967   -2.321444
  C     10.364024    1.314292   -3.582820
  C     11.066843    2.469845   -0.770672
  Cl    -2.597083    7.613834   -0.493170
  Cl    21.393539  -10.367655    5.479660
  H      2.021756    9.245587   -0.528510
  H     -1.046385    5.297011   -0.176585
  H      5.299784    5.272583   -0.233515
  H      3.426057    2.354226   -3.101663
  H      2.540238    3.083765   -1.781049
  H      2.658535    0.075045   -2.453648
  H      1.265086    1.159121   -2.560957
  H      1.919077    0.703773   -0.966983
  H     10.100010    0.653004    1.091165
  H      8.872208    1.724919    0.486000
  H     11.070093    0.341500   -1.124271
  H     11.778520   -2.029653    2.611134
  H     10.488463   -0.943221    2.137302
  H     11.955007    0.367757    0.757797
  H     14.129437   -8.170386    0.436343
  H     15.725386   -7.664350    0.940037
  H     14.354714   -6.685212   -1.653511
  H     15.677801   -7.871195   -1.536468
  H     15.954794   -6.171537   -1.081390
  H     16.424110   -4.533170    3.188317
  H     20.628744   -7.752341    4.889563
  H     16.759302  -10.784138    3.921128
  H     13.855961    0.940209    2.211873
  H     13.619155   -0.532978    3.144801
  H     11.512006    1.721866    2.890874
  H     12.626929    1.526175    4.257545
  H     11.380714    0.304194    3.956611
  H     14.175120   -1.726468    0.909261
  H     14.189356   -0.177803    0.049125
  H     13.107161   -1.476896   -0.494723
  H      8.776934    2.006153   -2.268086
  H      8.922016    0.255496   -2.402507
  H     10.907352    2.271020   -3.627640
  H      9.736348    1.249611   -4.484853
  H     11.113190    0.506732   -3.641381
  H     10.353883    3.312109   -0.764326
  H     11.816525    2.669369   -1.549004
  H     11.592865    2.468876    0.197190
*
