# ORCA input file
# CH1007.out
! CAM-B3LYP def2-SVP def2/J RIJCOSX Grid4 TightSCF
%maxcore 5000
%tddft
    Mode sTDDFT
    Ethresh 5.0
    maxcore 5000
end
* xyz 0 1
  C      4.277649    0.555285    0.949728
  O      3.780347    0.948559    1.988019
  C      5.505862    1.108644    0.323662
  C      6.301227    2.142530    0.804676
  C      7.455812    2.446334    0.092022
  F      8.275921    3.410199    0.501904
  C      7.786160    1.725835   -1.070671
  F      8.916159    2.029803   -1.702401
  C      6.976125    0.705053   -1.561022
  C      5.814033    0.388037   -0.845570
  C      4.779040   -0.654190   -1.046719
  C      4.671667   -1.471674   -2.155763
  C      3.632900   -2.443564   -2.306936
  N      2.796377   -3.238895   -2.443216
  C      5.574081   -1.388540   -3.261583
  N      6.302594   -1.320719   -4.164483
  C      3.876881   -0.608089    0.105634
  C      3.014646   -1.608109    0.510990
  C      2.118026   -1.603872    1.614022
  Se     2.066066   -3.264844    2.602871
  C      1.055075   -2.352526    3.881217
  C      0.786087   -1.036853    3.450619
  C      1.317961   -0.617362    2.208580
  C      0.910246    0.705988    1.608621
  C      0.539547    0.659268    0.122277
  S     -0.105655   -0.083060    4.638098
  C     -0.083686   -1.445742    5.712832
  C      0.553595   -2.576296    5.184903
  N      0.512603   -3.615237    6.111295
  C      0.505075   -4.989305    5.597214
  C     -0.882311   -5.438519    5.148282
  C     -0.147576   -3.128114    7.256717
  C     -0.531936   -1.773855    7.007959
  C     -1.256233   -0.995704    7.965533
  N     -1.632601    0.271993    7.853030
  S     -2.456108    0.648660    9.239258
  N     -2.344952   -0.813336   10.010287
  C     -1.667340   -1.620174    9.203493
  C     -1.264204   -2.967857    9.462575
  C     -0.449564   -3.706110    8.542216
  N     -0.081933   -4.902641    9.164003
  C      0.925757   -5.881765    8.772719
  C      0.333640   -7.200756    8.277078
  C     -0.678880   -4.942689   10.414528
  C     -1.426104   -3.770832   10.607448
  S     -2.216188   -3.694377   12.150308
  C     -1.511916   -5.260411   12.575846
  C     -0.709915   -5.794224   11.541902
  Se     0.008425   -7.443381   12.041309
  C     -0.878151   -7.199825   13.733134
  C     -1.649914   -6.027826   13.759413
  C     -2.704190   -5.736641   14.798952
  C     -2.714394   -4.318747   15.381853
  C     -0.690383   -8.252968   14.670816
  C     -0.623671   -8.212877   16.049035
  C     -0.505815   -9.369964   16.939337
  C     -0.714979  -10.700288   16.621452
  C     -0.559450  -11.754048   17.575660
  N     -0.431463  -12.620851   18.339199
  C     -1.125352  -11.156505   15.328813
  N     -1.468016  -11.571334   14.298255
  C     -0.159993   -8.861174   18.289146
  C      0.071926   -9.514797   19.507691
  C      0.361126   -8.735626   20.624316
  F      0.591310   -9.319632   21.797646
  C      0.417844   -7.331135   20.555649
  F      0.682719   -6.647804   21.664620
  C      0.199893   -6.674636   19.349952
  C     -0.088094   -7.456028   18.237320
  C     -0.372044   -6.982613   16.858409
  O     -0.331059   -5.825516   16.487478
  H      6.040662    2.685733    1.714339
  H      7.292423    0.189519   -2.465224
  H      3.110396   -2.570525   -0.000200
  H      1.719812    1.430266    1.782810
  H      0.040941    1.071236    2.179055
  H      1.405822    0.427642   -0.512671
  H      0.139841    1.632961   -0.200496
  H     -0.229456   -0.103341   -0.073805
  H      0.918265   -5.671589    6.341902
  H      1.210577   -5.014505    4.753904
  H     -1.591506   -5.423765    5.990326
  H     -0.841802   -6.463204    4.747436
  H     -1.271709   -4.776990    4.359882
  H      1.563512   -6.065408    9.652634
  H      1.579484   -5.410041    8.029165
  H     -0.210211   -7.717148    9.082477
  H      1.135067   -7.868707    7.925192
  H     -0.375076   -7.042938    7.452118
  H     -2.624312   -6.469908   15.608566
  H     -3.674264   -5.931097   14.302442
  H     -1.736761   -4.064685   15.809159
  H     -3.466775   -4.250314   16.182420
  H     -2.978837   -3.561527   14.629598
  H     -0.503854   -9.227118   14.211611
  H      0.041176  -10.595761   19.630565
  H      0.249907   -5.586289   19.283172
*
