# ORCA input file
# N3.out
! CAM-B3LYP def2-SVP def2/J RIJCOSX Grid4 TightSCF
%maxcore 5000
%tddft
    Mode sTDDFT
    Ethresh 5.0
    maxcore 5000
end
* xyz 0 1
  C      4.160641    0.579977    0.196465
  O      3.951691    1.476365    0.992982
  C      5.004191    0.684651   -1.027395
  C      5.635911    1.816413   -1.533106
  C      6.398263    1.669020   -2.688524
  F      7.021272    2.709132   -3.238022
  C      6.524015    0.409908   -3.303857
  F      7.269703    0.313009   -4.401200
  C      5.891796   -0.720872   -2.795672
  C      5.112256   -0.578689   -1.640170
  C      4.308052   -1.553416   -0.865751
  C      4.088668   -2.870048   -1.234503
  C      3.246422   -3.770319   -0.507433
  N      2.574397   -4.526370    0.066060
  C      4.666035   -3.453337   -2.405331
  N      5.123066   -3.947450   -3.352720
  C      3.744198   -0.844795    0.285864
  C      3.118301   -1.456744    1.355014
  C      2.362735   -0.999056    2.468059
  S      2.326728   -2.203257    3.788228
  C      1.259080   -1.226433    4.717754
  C      0.920246   -0.044520    4.021145
  C      1.518239    0.103683    2.749837
  C      1.133403    1.217668    1.816270
  C      0.538088    0.736531    0.486067
  S     -0.235659    0.959900    4.911045
  C     -0.254519   -0.221085    6.198663
  C      0.597602   -1.310561    5.960400
  N      0.463337   -2.242547    6.974353
  C      0.911742   -3.618266    6.769831
  C      2.418796   -3.792799    6.905622
  C     -0.473629   -1.752089    7.884076
  C     -0.947692   -0.488949    7.401717
  C     -2.017179    0.196873    8.064191
  N     -2.578878    1.342863    7.703755
  S     -3.809654    1.632879    8.772436
  N     -3.648549    0.285444    9.721243
  C     -2.636833   -0.414490    9.227589
  C     -2.114801   -1.648414    9.733300
  C     -1.014624   -2.299765    9.098926
  N     -0.692413   -3.447457    9.835662
  C      0.631590   -4.063740    9.970141
  C      0.644803   -5.562675    9.702666
  C     -1.596459   -3.535950   10.888009
  C     -2.471142   -2.439573   10.850681
  S     -3.608065   -2.414372   12.170722
  C     -2.897940   -3.907477   12.796093
  C     -1.851096   -4.396094   11.984478
  S     -1.291454   -5.927081   12.564890
  C     -2.427118   -5.875840   13.932833
  C     -3.232139   -4.723568   13.905863
  C     -4.407546   -4.437450   14.798719
  C     -4.318452   -3.088826   15.527272
  C     -2.455094   -7.064038   14.728933
  C     -2.647922   -7.228001   16.081634
  C     -2.733273   -8.504896   16.797534
  C     -3.029750   -9.743836   16.261269
  C     -3.112693  -10.931255   17.055111
  N     -3.183397  -11.902671   17.689216
  C     -3.305505   -9.953302   14.872805
  N     -3.528668  -10.162751   13.751752
  C     -2.490924   -8.227391   18.232245
  C     -2.396387   -9.075144   19.344613
  C     -2.131289   -8.500358   20.584235
  F     -2.021845   -9.268862   21.663296
  C     -1.968058   -7.111231   20.740162
  F     -1.718851   -6.633599   21.955800
  C     -2.064250   -6.262735   19.643511
  C     -2.324763   -6.839647   18.404468
  C     -2.456079   -6.147269   17.095299
  O     -2.338745   -4.953778   16.906436
  H      5.538754    2.787505   -1.044843
  H      6.032470   -1.663747   -3.319612
  H      3.246675   -2.541102    1.381529
  H      2.024238    1.831291    1.618198
  H      0.401635    1.856877    2.335290
  H      1.269982    0.166276   -0.104050
  H      0.216285    1.597440   -0.119225
  H     -0.336171    0.088043    0.650176
  H      0.589367   -3.924852    5.760813
  H      0.361801   -4.257269    7.464690
  H      2.776082   -3.504781    7.905611
  H      2.961462   -3.174527    6.177543
  H      2.696564   -4.841824    6.720976
  H      0.986983   -3.862532   10.995171
  H      1.318868   -3.530872    9.306486
  H     -0.037880   -6.101023   10.372427
  H      1.655189   -5.965478    9.872050
  H      0.338134   -5.803065    8.674085
  H     -4.532665   -5.249529   15.525685
  H     -5.307587   -4.450370   14.156141
  H     -5.209208   -2.934786   16.155778
  H     -4.261153   -2.246933   14.819852
  H     -3.431123   -3.061467   16.171270
  H     -2.217424   -7.969476   14.162903
  H     -2.515029  -10.155789   19.292777
  H     -1.931487   -5.184970   19.753602
*
