# ORCA input file
# Y11.out
! CAM-B3LYP def2-SVP def2/J RIJCOSX Grid4 TightSCF
%maxcore 5000
%tddft
    Mode sTDDFT
    Ethresh 5.0
    maxcore 5000
end
* xyz 0 1
  C      3.833669    3.784110   -2.446604
  O      5.051035    3.707685   -2.474767
  C      3.021447    4.763112   -3.207041
  C      3.477462    5.741159   -4.083346
  C      2.530527    6.575766   -4.664137
  F      2.899552    7.528390   -5.517477
  C      1.167653    6.428510   -4.347877
  F      0.296721    7.270461   -4.896214
  C      0.713343    5.436333   -3.481609
  C      1.659602    4.581381   -2.902641
  C      1.529537    3.442486   -1.955406
  C      0.326331    2.986578   -1.437927
  C      0.218109    1.902603   -0.511545
  N      0.105287    1.023654    0.242106
  C     -0.933874    3.571222   -1.776447
  N     -1.967960    4.033765   -2.037499
  C      2.879284    2.946683   -1.682113
  C      3.204499    1.866251   -0.877705
  C      4.420231    1.306302   -0.429419
  S      6.047428    1.950130   -0.761802
  C      6.742050    0.757959    0.274036
  C      5.779971   -0.111698    0.829673
  C      4.463347    0.170333    0.430670
  C      3.278764   -0.645175    0.873742
  C      2.856315   -0.382509    2.327004
  S      6.494774   -1.348765    1.879784
  C      8.085227   -0.696554    1.535428
  C      8.044230    0.415718    0.685139
  N      9.320833    0.867644    0.411445
  C      9.504052    1.624299   -0.828950
  C      9.512593    0.743558   -2.072614
  C     10.216562    0.031807    1.097823
  C      9.447569   -0.959094    1.805266
  C     10.115597   -1.972606    2.552734
  N      9.641474   -2.983308    3.297787
  N     10.741635   -3.584603    3.734475
  C     10.680580   -4.789124    4.550131
  C     10.647284   -6.058344    3.707255
  N     11.900915   -3.077326    3.332030
  C     11.535097   -2.032614    2.573941
  C     12.310321   -1.041318    1.906135
  C     11.650460    0.028401    1.204004
  N     12.639289    0.898342    0.729749
  C     12.556411    2.248610    0.184921
  C     12.787929    2.307714   -1.323611
  C     13.868160    0.373127    1.072127
  C     13.699574   -0.816368    1.793691
  S     15.213056   -1.573737    2.220131
  C     16.097995   -0.269633    1.399841
  C     15.220256    0.696683    0.851066
  S     16.073942    1.922418   -0.004088
  C     17.631287    1.141286    0.357535
  C     17.467727   -0.040138    1.126556
  C     18.600404   -0.959996    1.471404
  C     18.232433   -2.417501    1.743444
  C     18.721366    1.678627   -0.368372
  C     20.095116    1.600758   -0.217082
  C     21.059194    1.955077   -1.260109
  C     20.799165    2.187687   -2.600603
  C     21.814619    2.564675   -3.534401
  N     22.616011    2.880812   -4.314729
  C     19.506630    2.058940   -3.202161
  N     18.481043    1.960384   -3.741536
  C     22.405022    1.959680   -0.642394
  C     23.677783    2.192192   -1.180613
  C     24.775838    2.101257   -0.330665
  F     26.001092    2.317935   -0.803299
  C     24.631357    1.779508    1.030854
  F     25.725364    1.691472    1.782425
  C     23.370623    1.553360    1.574832
  C     22.276096    1.636022    0.721732
  C     20.842111    1.407209    1.057299
  O     20.402544    1.199271    2.174009
  H      4.537816    5.855713   -4.314403
  H     -0.355487    5.377071   -3.287240
  H      2.355366    1.323587   -0.471223
  H      3.555665   -1.707810    0.759535
  H      2.416848   -0.481874    0.213920
  H      3.688030   -0.562393    3.025667
  H      2.024524   -1.045641    2.605643
  H      2.511740    0.654718    2.453783
  H     10.411391    2.218587   -0.770457
  H      8.680562    2.351033   -0.879415
  H     10.336524    0.014116   -2.035481
  H      9.637798    1.366730   -2.971541
  H      8.567241    0.189916   -2.171743
  H      9.779483   -4.695852    5.171862
  H     11.563801   -4.764038    5.203512
  H      9.765303   -6.064026    3.049308
  H     10.599988   -6.940845    4.363362
  H     11.550638   -6.133595    3.083563
  H     13.321962    2.849235    0.700530
  H     11.597851    2.685692    0.489071
  H     13.795310    1.948331   -1.578026
  H     12.696816    3.343398   -1.684878
  H     12.073118    1.684158   -1.874677
  H     19.131529   -0.524269    2.333477
  H     19.336874   -0.903198    0.651468
  H     17.622948   -2.526131    2.653887
  H     19.146942   -3.007417    1.903692
  H     17.678016   -2.869617    0.906494
  H     18.390399    2.252224   -1.237452
  H     23.854478    2.451679   -2.222417
  H     23.252913    1.300923    2.629904
*
