# ORCA input file
# Y15.out
! CAM-B3LYP def2-SVP def2/J RIJCOSX Grid4 TightSCF
%maxcore 5000
%tddft
    Mode sTDDFT
    Ethresh 5.0
    maxcore 5000
end
* xyz 0 1
  C      6.505162    4.642651   -0.802168
  O      7.243091    3.734487   -1.147937
  C      6.639290    6.067343   -1.195865
  C      7.615409    6.642251   -1.993429
  C      7.557499    8.021164   -2.223660
  Cl     8.774332    8.765951   -3.203398
  C      6.515369    8.784725   -1.654790
  Cl     6.422793   10.490648   -1.940033
  C      5.534382    8.190272   -0.848995
  C      5.596946    6.815038   -0.614116
  C      4.738013    5.901858    0.183532
  C      3.616894    6.300862    0.896792
  C      2.796740    5.411201    1.659012
  N      2.110178    4.711510    2.285551
  C      3.167788    7.657061    0.947235
  N      2.778228    8.750641    1.009382
  C      5.311710    4.562858    0.068596
  C      4.823979    3.416141    0.669929
  C      5.257166    2.077318    0.745752
  S      6.752736    1.389216    0.062830
  C      6.382848   -0.145744    0.770145
  C      5.148600   -0.135492    1.461257
  C      4.511247    1.108921    1.475923
  C      3.195118    1.362325    2.158238
  C      1.996638    1.337270    1.200609
  S      4.741350   -1.692013    2.195559
  C      6.248718   -2.337395    1.592655
  C      7.008049   -1.405016    0.869942
  N      8.196804   -1.976892    0.452209
  C      8.870299   -1.395138   -0.710558
  C      8.221806   -1.767278   -2.040101
  C      8.216524   -3.299266    0.924561
  C      6.982114   -3.541153    1.622506
  C      6.711449   -4.825541    2.176552
  N      5.650097   -5.297080    2.849931
  N      5.981384   -6.558716    3.096263
  C      5.053011   -7.480674    3.735061
  C      4.230990   -8.263545    2.717885
  N      7.156815   -6.970252    2.636788
  C      7.656131   -5.875595    2.041376
  C      8.914646   -5.631790    1.419222
  C      9.220165   -4.326933    0.892575
  N     10.557943   -4.336810    0.478076
  C     11.465634   -3.246449    0.133569
  C     11.784580   -3.170437   -1.358569
  C     11.064629   -5.600364    0.708543
  C     10.075227   -6.417272    1.277447
  S     10.638409   -8.022635    1.669091
  C     12.246279   -7.575161    1.086412
  C     12.309298   -6.253066    0.593856
  S     13.886029   -5.895068    0.000681
  C     14.484084   -7.519600    0.466727
  C     13.445360   -8.309523    1.022125
  C     13.469731   -9.765899    1.383975
  C     13.838236  -10.685289    0.216615
  C     15.843192   -7.718078    0.104955
  C     16.831129   -8.582023    0.543754
  C     18.154296   -8.750553   -0.070260
  C     18.626639   -8.198570   -1.249269
  C     19.954804   -8.419460   -1.731917
  N     21.030362   -8.578646   -2.143169
  C     17.850923   -7.353286   -2.103192
  N     17.249348   -6.662856   -2.819564
  C     18.937067   -9.663221    0.801116
  C     20.238518  -10.166124    0.709718
  C     20.696529  -11.039156    1.706400
  Cl    22.311333  -11.654895    1.592335
  C     19.869164  -11.414774    2.786960
  Cl    20.434423  -12.509149    4.001134
  C     18.575454  -10.895809    2.888501
  C     18.136602  -10.034234    1.896672
  C     16.827647   -9.341028    1.822100
  O     15.990665   -9.337625    2.707184
  H      8.410926    6.036363   -2.429230
  H      4.757928    8.826003   -0.431916
  H      3.905348    3.551823    1.233860
  H      3.212173    2.330013    2.681508
  H      3.059763    0.596987    2.938593
  H      2.087740    2.119750    0.432236
  H      1.065790    1.521104    1.757266
  H      1.916552    0.367103    0.686255
  H      9.918411   -1.685232   -0.709541
  H      8.859697   -0.304224   -0.567657
  H      8.220112   -2.858620   -2.185152
  H      8.781918   -1.306483   -2.868138
  H      7.183749   -1.406633   -2.090557
  H      4.412344   -6.869812    4.385139
  H      5.656662   -8.152478    4.361359
  H      3.637189   -7.581538    2.090006
  H      3.542758   -8.946359    3.239774
  H      4.887423   -8.859503    2.065801
  H     12.394614   -3.410227    0.701569
  H     11.045395   -2.314076    0.527371
  H     12.276751   -4.093350   -1.699195
  H     12.468124   -2.332365   -1.563157
  H     10.877780   -3.034403   -1.964910
  H     12.470951  -10.039595    1.759314
  H     14.172701   -9.913756    2.215028
  H     13.149926  -10.547522   -0.631339
  H     13.783138  -11.737198    0.537342
  H     14.858662  -10.492622   -0.147427
  H     16.162175   -7.012829   -0.665592
  H     20.918405   -9.906672   -0.097529
  H     17.927379  -11.164793    3.723483
*
