# ORCA input file
# Y5.out
! CAM-B3LYP def2-SVP def2/J RIJCOSX Grid4 TightSCF
%maxcore 5000
%tddft
    Mode sTDDFT
    Ethresh 5.0
    maxcore 5000
end
* xyz 0 1
  C      0.769773   -1.752454   -1.340831
  O      1.245947   -1.576128   -2.444321
  C      1.496209   -1.921684   -0.053509
  C      2.867917   -1.972643    0.160997
  C      3.324914   -2.136655    1.473161
  C      2.411071   -2.235286    2.531095
  C      1.028271   -2.179804    2.314842
  C      0.563901   -2.031433    1.002718
  C     -0.806364   -1.898439    0.443342
  C     -1.948935   -1.585637    1.162817
  C     -3.120153   -1.073381    0.524290
  N     -4.050232   -0.606043    0.007013
  C     -1.993916   -1.621006    2.589645
  N     -2.041221   -1.675527    3.749987
  C     -0.681605   -1.903227   -1.002888
  C     -1.557953   -2.102322   -2.041780
  C     -2.835940   -2.703158   -2.136981
  S     -3.475869   -3.833018   -0.930773
  C     -4.844842   -4.169898   -1.935681
  C     -4.797169   -3.435119   -3.141696
  C     -3.670177   -2.604446   -3.267247
  C     -3.397698   -1.666693   -4.407934
  C     -3.535158   -0.190626   -4.004158
  S     -6.121082   -3.821915   -4.243765
  C     -6.711423   -4.987316   -3.090276
  C     -5.966277   -5.025892   -1.902045
  N     -6.482905   -5.989313   -1.049449
  C     -5.572728   -6.629280   -0.095967
  C     -4.665290   -7.657093   -0.763333
  C     -7.560577   -6.592869   -1.710991
  C     -7.693532   -5.999901   -3.003610
  C     -8.585497   -6.548663   -3.982709
  N     -8.743654   -6.145348   -5.236359
  S     -9.791993   -7.207104   -5.954810
  N    -10.063457   -8.210403   -4.665210
  C     -9.349590   -7.739351   -3.651158
  C     -9.307542   -8.240895   -2.308085
  C     -8.471163   -7.632264   -1.318166
  N     -8.771812   -8.202936   -0.081884
  C     -8.373932   -7.795714    1.261649
  C     -7.422464   -8.788570    1.925763
  C     -9.735741   -9.173049   -0.281792
  C    -10.063822   -9.231532   -1.645675
  S    -11.281261  -10.422092   -2.011960
  C    -11.372329  -10.835497   -0.296986
  C    -10.515894  -10.053999    0.503853
  S    -10.726292  -10.424145    2.180733
  C    -11.916186  -11.679722    1.792418
  C    -12.153050  -11.779388    0.412357
  C    -13.173217  -12.658982   -0.258050
  C    -12.579959  -13.592208   -1.323201
  C    -12.553436  -12.319407    2.900969
  C    -13.050179  -13.586861    3.062133
  C    -12.858946  -14.848152    2.356063
  C    -11.763029  -15.206287    1.593091
  C    -11.652773  -16.473960    0.941648
  N    -11.551231  -17.486771    0.380624
  C    -10.609306  -14.374137    1.457758
  N     -9.642372  -13.739140    1.348166
  C    -13.933533  -15.770314    2.802781
  C    -14.316259  -17.041935    2.359518
  C    -15.357439  -17.695673    3.030759
  C    -16.000929  -17.114248    4.133332
  C    -15.625406  -15.843021    4.578574
  C    -14.606988  -15.185249    3.898116
  C    -14.063986  -13.823608    4.147387
  O    -14.403074  -13.040494    5.010072
  H      3.552054   -1.880900   -0.685256
  H      4.396798   -2.186284    1.679802
  H      2.784689   -2.363119    3.549663
  H      0.346287   -2.259562    3.159310
  H     -1.119373   -1.824562   -3.008957
  H     -4.085920   -1.899780   -5.235255
  H     -2.380626   -1.851289   -4.795808
  H     -4.543608    0.020314   -3.616470
  H     -3.341324    0.466531   -4.865358
  H     -2.822422    0.069477   -3.208683
  H     -6.148483   -7.087601    0.706323
  H     -4.983223   -5.827935    0.374207
  H     -4.008884   -8.130455   -0.016945
  H     -4.031531   -7.181607   -1.526793
  H     -5.261627   -8.445182   -1.248721
  H     -9.292834   -7.695533    1.862055
  H     -7.946724   -6.787028    1.197491
  H     -7.927049   -9.742727    2.136779
  H     -7.049969   -8.382228    2.878803
  H     -6.561546   -9.008640    1.279020
  H    -13.913634  -11.996670   -0.742393
  H    -13.723396  -13.239238    0.493753
  H    -11.825773  -14.268906   -0.901630
  H    -12.088140  -13.024783   -2.127137
  H    -13.372166  -14.205031   -1.778747
  H    -12.744189  -11.678797    3.773921
  H    -13.833426  -17.523882    1.511666
  H    -15.676314  -18.680149    2.681585
  H    -16.798178  -17.659672    4.643249
  H    -16.108954  -15.361667    5.430615
*
